* Extracted by KLayout with GF180MCU LVS runset on : 01/06/2026 21:23

.SUBCKT tm_to_bin2 OUT|wl[0] comp[1] VDD OUT|wl[1] A_3|comp[2] GND OUT|wl[2]
+ A_4|B_3|comp[3] OUT|wl[3] A_5|B_4|C_3|comp[4] OUT|wl[4] A_6|B_5|C_4|comp[5]
+ OUT|wl[5] B_6|C_5|comp[6] OUT|wl[6] C_6|comp[7] OUT|wl[7] comp[8] OUT|wl[8]
+ comp[9] OUT|wl[9] comp[10] OUT|wl[10] comp[11] OUT|wl[11] comp[12] OUT|wl[12]
+ comp[13] OUT|wl[13] VDD|comp[14] OUT|wl[14] comp[15] OUT|wl[15] comp[16]
+ OUT|wl[16] comp[17] OUT|wl[17] comp[18] OUT|wl[18] comp[19] OUT|wl[19]
+ comp[20] OUT|wl[20] comp[21] OUT|wl[21] comp[22] OUT|wl[22] comp[23]
+ OUT|wl[23] comp[24] OUT|wl[24] comp[25] OUT|wl[25] comp[26] OUT|wl[26]
+ comp[27] OUT|wl[27] comp[28] OUT|wl[28] comp[29] OUT|wl[29] comp[30]
+ OUT|wl[30] comp[31] OUT|wl[31] comp[32] OUT|wl[32] comp[33] OUT|wl[33]
+ comp[34] OUT|wl[34] comp[35] OUT|wl[35] comp[36] OUT|wl[36] comp[37]
+ OUT|wl[37] comp[38] OUT|wl[38] comp[39] OUT|wl[39] comp[40] OUT|wl[40]
+ comp[41] OUT|wl[41] comp[42] OUT|wl[42] comp[43] OUT|wl[43] comp[44]
+ OUT|wl[44] comp[45] OUT|wl[45] comp[46] OUT|wl[46] comp[47] OUT|wl[47]
+ comp[48] OUT|wl[48] comp[49] OUT|wl[49] comp[50] OUT|wl[50] comp[51]
+ OUT|wl[51] comp[52] OUT|wl[52] comp[53] OUT|wl[53] comp[54] OUT|wl[54]
+ comp[55] OUT|wl[55] comp[56] OUT|wl[56] comp[57] OUT|wl[57] comp[58]
+ OUT|wl[58] comp[59] OUT|wl[59] comp[60] OUT|wl[60] comp[61] OUT|wl[61]
+ comp[62] OUT|wl[62]
M$1 VDD VDD \$5 VDD pfet_03v3 L=0.28U W=16.5U AS=5.577P AD=5.577P PS=23.18U
+ PD=23.18U
M$6 VDD \$8 \$5 VDD pfet_03v3 L=0.28U W=16.5U AS=5.577P AD=5.577P PS=23.18U
+ PD=23.18U
M$11 VDD \$10 \$5 VDD pfet_03v3 L=0.28U W=16.5U AS=5.577P AD=5.577P PS=23.18U
+ PD=23.18U
M$16 VDD comp[1] \$10 VDD pfet_03v3 L=0.28U W=16.5U AS=5.577P AD=5.577P
+ PS=23.18U PD=23.18U
M$21 VDD \$5 OUT|wl[0] VDD pfet_03v3 L=0.28U W=16.5U AS=5.577P AD=5.577P
+ PS=23.18U PD=23.18U
M$26 VDD \$8 \$24 VDD pfet_03v3 L=0.28U W=16.5U AS=5.577P AD=5.577P PS=23.18U
+ PD=23.18U
M$31 VDD comp[1] \$24 VDD pfet_03v3 L=0.28U W=16.5U AS=5.577P AD=5.577P
+ PS=23.18U PD=23.18U
M$36 VDD \$25 \$24 VDD pfet_03v3 L=0.28U W=16.5U AS=5.577P AD=5.577P PS=23.18U
+ PD=23.18U
M$41 VDD A_3|comp[2] \$25 VDD pfet_03v3 L=0.28U W=16.5U AS=5.577P AD=5.577P
+ PS=23.18U PD=23.18U
M$46 VDD \$24 OUT|wl[1] VDD pfet_03v3 L=0.28U W=16.5U AS=5.577P AD=5.577P
+ PS=23.18U PD=23.18U
M$51 VDD comp[1] \$47 VDD pfet_03v3 L=0.28U W=16.5U AS=5.577P AD=5.577P
+ PS=23.18U PD=23.18U
M$56 VDD A_3|comp[2] \$47 VDD pfet_03v3 L=0.28U W=16.5U AS=5.577P AD=5.577P
+ PS=23.18U PD=23.18U
M$61 VDD \$44 \$47 VDD pfet_03v3 L=0.28U W=16.5U AS=5.577P AD=5.577P PS=23.18U
+ PD=23.18U
M$66 VDD A_4|B_3|comp[3] \$44 VDD pfet_03v3 L=0.28U W=16.5U AS=5.577P AD=5.577P
+ PS=23.18U PD=23.18U
M$71 VDD \$47 OUT|wl[2] VDD pfet_03v3 L=0.28U W=16.5U AS=5.577P AD=5.577P
+ PS=23.18U PD=23.18U
M$76 VDD A_3|comp[2] \$59 VDD pfet_03v3 L=0.28U W=16.5U AS=5.577P AD=5.577P
+ PS=23.18U PD=23.18U
M$81 VDD A_4|B_3|comp[3] \$59 VDD pfet_03v3 L=0.28U W=16.5U AS=5.577P AD=5.577P
+ PS=23.18U PD=23.18U
M$86 VDD \$60 \$59 VDD pfet_03v3 L=0.28U W=16.5U AS=5.577P AD=5.577P PS=23.18U
+ PD=23.18U
M$91 VDD A_5|B_4|C_3|comp[4] \$60 VDD pfet_03v3 L=0.28U W=16.5U AS=5.577P
+ AD=5.577P PS=23.18U PD=23.18U
M$96 VDD \$59 OUT|wl[3] VDD pfet_03v3 L=0.28U W=16.5U AS=5.577P AD=5.577P
+ PS=23.18U PD=23.18U
M$101 VDD A_4|B_3|comp[3] \$81 VDD pfet_03v3 L=0.28U W=16.5U AS=5.577P
+ AD=5.577P PS=23.18U PD=23.18U
M$106 VDD A_5|B_4|C_3|comp[4] \$81 VDD pfet_03v3 L=0.28U W=16.5U AS=5.577P
+ AD=5.577P PS=23.18U PD=23.18U
M$111 VDD \$78 \$81 VDD pfet_03v3 L=0.28U W=16.5U AS=5.577P AD=5.577P PS=23.18U
+ PD=23.18U
M$116 VDD A_6|B_5|C_4|comp[5] \$78 VDD pfet_03v3 L=0.28U W=16.5U AS=5.577P
+ AD=5.577P PS=23.18U PD=23.18U
M$121 VDD \$81 OUT|wl[4] VDD pfet_03v3 L=0.28U W=16.5U AS=5.577P AD=5.577P
+ PS=23.18U PD=23.18U
M$126 VDD A_5|B_4|C_3|comp[4] \$93 VDD pfet_03v3 L=0.28U W=16.5U AS=5.577P
+ AD=5.577P PS=23.18U PD=23.18U
M$131 VDD A_6|B_5|C_4|comp[5] \$93 VDD pfet_03v3 L=0.28U W=16.5U AS=5.577P
+ AD=5.577P PS=23.18U PD=23.18U
M$136 VDD \$94 \$93 VDD pfet_03v3 L=0.28U W=16.5U AS=5.577P AD=5.577P PS=23.18U
+ PD=23.18U
M$141 VDD B_6|C_5|comp[6] \$94 VDD pfet_03v3 L=0.28U W=16.5U AS=5.577P
+ AD=5.577P PS=23.18U PD=23.18U
M$146 VDD \$93 OUT|wl[5] VDD pfet_03v3 L=0.28U W=16.5U AS=5.577P AD=5.577P
+ PS=23.18U PD=23.18U
M$151 VDD A_6|B_5|C_4|comp[5] \$115 VDD pfet_03v3 L=0.28U W=16.5U AS=5.577P
+ AD=5.577P PS=23.18U PD=23.18U
M$156 VDD B_6|C_5|comp[6] \$115 VDD pfet_03v3 L=0.28U W=16.5U AS=5.577P
+ AD=5.577P PS=23.18U PD=23.18U
M$161 VDD \$112 \$115 VDD pfet_03v3 L=0.28U W=16.5U AS=5.577P AD=5.577P
+ PS=23.18U PD=23.18U
M$166 VDD C_6|comp[7] \$112 VDD pfet_03v3 L=0.28U W=16.5U AS=5.577P AD=5.577P
+ PS=23.18U PD=23.18U
M$171 VDD \$115 OUT|wl[6] VDD pfet_03v3 L=0.28U W=16.5U AS=5.577P AD=5.577P
+ PS=23.18U PD=23.18U
M$176 VDD B_6|C_5|comp[6] \$127 VDD pfet_03v3 L=0.28U W=16.5U AS=5.577P
+ AD=5.577P PS=23.18U PD=23.18U
M$181 VDD C_6|comp[7] \$127 VDD pfet_03v3 L=0.28U W=16.5U AS=5.577P AD=5.577P
+ PS=23.18U PD=23.18U
M$186 VDD \$128 \$127 VDD pfet_03v3 L=0.28U W=16.5U AS=5.577P AD=5.577P
+ PS=23.18U PD=23.18U
M$191 VDD comp[8] \$128 VDD pfet_03v3 L=0.28U W=16.5U AS=5.577P AD=5.577P
+ PS=23.18U PD=23.18U
M$196 VDD \$127 OUT|wl[7] VDD pfet_03v3 L=0.28U W=16.5U AS=5.577P AD=5.577P
+ PS=23.18U PD=23.18U
M$201 VDD C_6|comp[7] \$149 VDD pfet_03v3 L=0.28U W=16.5U AS=5.577P AD=5.577P
+ PS=23.18U PD=23.18U
M$206 VDD comp[8] \$149 VDD pfet_03v3 L=0.28U W=16.5U AS=5.577P AD=5.577P
+ PS=23.18U PD=23.18U
M$211 VDD \$146 \$149 VDD pfet_03v3 L=0.28U W=16.5U AS=5.577P AD=5.577P
+ PS=23.18U PD=23.18U
M$216 VDD comp[9] \$146 VDD pfet_03v3 L=0.28U W=16.5U AS=5.577P AD=5.577P
+ PS=23.18U PD=23.18U
M$221 VDD \$149 OUT|wl[8] VDD pfet_03v3 L=0.28U W=16.5U AS=5.577P AD=5.577P
+ PS=23.18U PD=23.18U
M$226 VDD comp[8] \$161 VDD pfet_03v3 L=0.28U W=16.5U AS=5.577P AD=5.577P
+ PS=23.18U PD=23.18U
M$231 VDD comp[9] \$161 VDD pfet_03v3 L=0.28U W=16.5U AS=5.577P AD=5.577P
+ PS=23.18U PD=23.18U
M$236 VDD \$162 \$161 VDD pfet_03v3 L=0.28U W=16.5U AS=5.577P AD=5.577P
+ PS=23.18U PD=23.18U
M$241 VDD comp[10] \$162 VDD pfet_03v3 L=0.28U W=16.5U AS=5.577P AD=5.577P
+ PS=23.18U PD=23.18U
M$246 VDD \$161 OUT|wl[9] VDD pfet_03v3 L=0.28U W=16.5U AS=5.577P AD=5.577P
+ PS=23.18U PD=23.18U
M$251 VDD comp[9] \$183 VDD pfet_03v3 L=0.28U W=16.5U AS=5.577P AD=5.577P
+ PS=23.18U PD=23.18U
M$256 VDD comp[10] \$183 VDD pfet_03v3 L=0.28U W=16.5U AS=5.577P AD=5.577P
+ PS=23.18U PD=23.18U
M$261 VDD \$180 \$183 VDD pfet_03v3 L=0.28U W=16.5U AS=5.577P AD=5.577P
+ PS=23.18U PD=23.18U
M$266 VDD comp[11] \$180 VDD pfet_03v3 L=0.28U W=16.5U AS=5.577P AD=5.577P
+ PS=23.18U PD=23.18U
M$271 VDD \$183 OUT|wl[10] VDD pfet_03v3 L=0.28U W=16.5U AS=5.577P AD=5.577P
+ PS=23.18U PD=23.18U
M$276 VDD comp[10] \$195 VDD pfet_03v3 L=0.28U W=16.5U AS=5.577P AD=5.577P
+ PS=23.18U PD=23.18U
M$281 VDD comp[11] \$195 VDD pfet_03v3 L=0.28U W=16.5U AS=5.577P AD=5.577P
+ PS=23.18U PD=23.18U
M$286 VDD \$196 \$195 VDD pfet_03v3 L=0.28U W=16.5U AS=5.577P AD=5.577P
+ PS=23.18U PD=23.18U
M$291 VDD comp[12] \$196 VDD pfet_03v3 L=0.28U W=16.5U AS=5.577P AD=5.577P
+ PS=23.18U PD=23.18U
M$296 VDD \$195 OUT|wl[11] VDD pfet_03v3 L=0.28U W=16.5U AS=5.577P AD=5.577P
+ PS=23.18U PD=23.18U
M$301 VDD comp[11] \$217 VDD pfet_03v3 L=0.28U W=16.5U AS=5.577P AD=5.577P
+ PS=23.18U PD=23.18U
M$306 VDD comp[12] \$217 VDD pfet_03v3 L=0.28U W=16.5U AS=5.577P AD=5.577P
+ PS=23.18U PD=23.18U
M$311 VDD \$214 \$217 VDD pfet_03v3 L=0.28U W=16.5U AS=5.577P AD=5.577P
+ PS=23.18U PD=23.18U
M$316 VDD comp[13] \$214 VDD pfet_03v3 L=0.28U W=16.5U AS=5.577P AD=5.577P
+ PS=23.18U PD=23.18U
M$321 VDD \$217 OUT|wl[12] VDD pfet_03v3 L=0.28U W=16.5U AS=5.577P AD=5.577P
+ PS=23.18U PD=23.18U
M$326 VDD comp[12] \$229 VDD pfet_03v3 L=0.28U W=16.5U AS=5.577P AD=5.577P
+ PS=23.18U PD=23.18U
M$331 VDD comp[13] \$229 VDD pfet_03v3 L=0.28U W=16.5U AS=5.577P AD=5.577P
+ PS=23.18U PD=23.18U
M$336 VDD \$230 \$229 VDD pfet_03v3 L=0.28U W=16.5U AS=5.577P AD=5.577P
+ PS=23.18U PD=23.18U
M$341 VDD VDD|comp[14] \$230 VDD pfet_03v3 L=0.28U W=16.5U AS=5.577P AD=5.577P
+ PS=23.18U PD=23.18U
M$346 VDD \$229 OUT|wl[13] VDD pfet_03v3 L=0.28U W=16.5U AS=5.577P AD=5.577P
+ PS=23.18U PD=23.18U
M$351 VDD comp[13] \$251 VDD pfet_03v3 L=0.28U W=16.5U AS=5.577P AD=5.577P
+ PS=23.18U PD=23.18U
M$356 VDD VDD|comp[14] \$251 VDD pfet_03v3 L=0.28U W=16.5U AS=5.577P AD=5.577P
+ PS=23.18U PD=23.18U
M$361 VDD \$248 \$251 VDD pfet_03v3 L=0.28U W=16.5U AS=5.577P AD=5.577P
+ PS=23.18U PD=23.18U
M$366 VDD comp[15] \$248 VDD pfet_03v3 L=0.28U W=16.5U AS=5.577P AD=5.577P
+ PS=23.18U PD=23.18U
M$371 VDD \$251 OUT|wl[14] VDD pfet_03v3 L=0.28U W=16.5U AS=5.577P AD=5.577P
+ PS=23.18U PD=23.18U
M$376 VDD VDD|comp[14] \$263 VDD pfet_03v3 L=0.28U W=16.5U AS=5.577P AD=5.577P
+ PS=23.18U PD=23.18U
M$381 VDD comp[15] \$263 VDD pfet_03v3 L=0.28U W=16.5U AS=5.577P AD=5.577P
+ PS=23.18U PD=23.18U
M$386 VDD \$264 \$263 VDD pfet_03v3 L=0.28U W=16.5U AS=5.577P AD=5.577P
+ PS=23.18U PD=23.18U
M$391 VDD comp[16] \$264 VDD pfet_03v3 L=0.28U W=16.5U AS=5.577P AD=5.577P
+ PS=23.18U PD=23.18U
M$396 VDD \$263 OUT|wl[15] VDD pfet_03v3 L=0.28U W=16.5U AS=5.577P AD=5.577P
+ PS=23.18U PD=23.18U
M$401 VDD comp[15] \$285 VDD pfet_03v3 L=0.28U W=16.5U AS=5.577P AD=5.577P
+ PS=23.18U PD=23.18U
M$406 VDD comp[16] \$285 VDD pfet_03v3 L=0.28U W=16.5U AS=5.577P AD=5.577P
+ PS=23.18U PD=23.18U
M$411 VDD \$282 \$285 VDD pfet_03v3 L=0.28U W=16.5U AS=5.577P AD=5.577P
+ PS=23.18U PD=23.18U
M$416 VDD comp[17] \$282 VDD pfet_03v3 L=0.28U W=16.5U AS=5.577P AD=5.577P
+ PS=23.18U PD=23.18U
M$421 VDD \$285 OUT|wl[16] VDD pfet_03v3 L=0.28U W=16.5U AS=5.577P AD=5.577P
+ PS=23.18U PD=23.18U
M$426 VDD comp[16] \$297 VDD pfet_03v3 L=0.28U W=16.5U AS=5.577P AD=5.577P
+ PS=23.18U PD=23.18U
M$431 VDD comp[17] \$297 VDD pfet_03v3 L=0.28U W=16.5U AS=5.577P AD=5.577P
+ PS=23.18U PD=23.18U
M$436 VDD \$298 \$297 VDD pfet_03v3 L=0.28U W=16.5U AS=5.577P AD=5.577P
+ PS=23.18U PD=23.18U
M$441 VDD comp[18] \$298 VDD pfet_03v3 L=0.28U W=16.5U AS=5.577P AD=5.577P
+ PS=23.18U PD=23.18U
M$446 VDD \$297 OUT|wl[17] VDD pfet_03v3 L=0.28U W=16.5U AS=5.577P AD=5.577P
+ PS=23.18U PD=23.18U
M$451 VDD comp[17] \$319 VDD pfet_03v3 L=0.28U W=16.5U AS=5.577P AD=5.577P
+ PS=23.18U PD=23.18U
M$456 VDD comp[18] \$319 VDD pfet_03v3 L=0.28U W=16.5U AS=5.577P AD=5.577P
+ PS=23.18U PD=23.18U
M$461 VDD \$316 \$319 VDD pfet_03v3 L=0.28U W=16.5U AS=5.577P AD=5.577P
+ PS=23.18U PD=23.18U
M$466 VDD comp[19] \$316 VDD pfet_03v3 L=0.28U W=16.5U AS=5.577P AD=5.577P
+ PS=23.18U PD=23.18U
M$471 VDD \$319 OUT|wl[18] VDD pfet_03v3 L=0.28U W=16.5U AS=5.577P AD=5.577P
+ PS=23.18U PD=23.18U
M$476 VDD comp[18] \$331 VDD pfet_03v3 L=0.28U W=16.5U AS=5.577P AD=5.577P
+ PS=23.18U PD=23.18U
M$481 VDD comp[19] \$331 VDD pfet_03v3 L=0.28U W=16.5U AS=5.577P AD=5.577P
+ PS=23.18U PD=23.18U
M$486 VDD \$332 \$331 VDD pfet_03v3 L=0.28U W=16.5U AS=5.577P AD=5.577P
+ PS=23.18U PD=23.18U
M$491 VDD comp[20] \$332 VDD pfet_03v3 L=0.28U W=16.5U AS=5.577P AD=5.577P
+ PS=23.18U PD=23.18U
M$496 VDD \$331 OUT|wl[19] VDD pfet_03v3 L=0.28U W=16.5U AS=5.577P AD=5.577P
+ PS=23.18U PD=23.18U
M$501 VDD comp[19] \$353 VDD pfet_03v3 L=0.28U W=16.5U AS=5.577P AD=5.577P
+ PS=23.18U PD=23.18U
M$506 VDD comp[20] \$353 VDD pfet_03v3 L=0.28U W=16.5U AS=5.577P AD=5.577P
+ PS=23.18U PD=23.18U
M$511 VDD \$350 \$353 VDD pfet_03v3 L=0.28U W=16.5U AS=5.577P AD=5.577P
+ PS=23.18U PD=23.18U
M$516 VDD comp[21] \$350 VDD pfet_03v3 L=0.28U W=16.5U AS=5.577P AD=5.577P
+ PS=23.18U PD=23.18U
M$521 VDD \$353 OUT|wl[20] VDD pfet_03v3 L=0.28U W=16.5U AS=5.577P AD=5.577P
+ PS=23.18U PD=23.18U
M$526 VDD comp[20] \$365 VDD pfet_03v3 L=0.28U W=16.5U AS=5.577P AD=5.577P
+ PS=23.18U PD=23.18U
M$531 VDD comp[21] \$365 VDD pfet_03v3 L=0.28U W=16.5U AS=5.577P AD=5.577P
+ PS=23.18U PD=23.18U
M$536 VDD \$366 \$365 VDD pfet_03v3 L=0.28U W=16.5U AS=5.577P AD=5.577P
+ PS=23.18U PD=23.18U
M$541 VDD comp[22] \$366 VDD pfet_03v3 L=0.28U W=16.5U AS=5.577P AD=5.577P
+ PS=23.18U PD=23.18U
M$546 VDD \$365 OUT|wl[21] VDD pfet_03v3 L=0.28U W=16.5U AS=5.577P AD=5.577P
+ PS=23.18U PD=23.18U
M$551 VDD comp[21] \$387 VDD pfet_03v3 L=0.28U W=16.5U AS=5.577P AD=5.577P
+ PS=23.18U PD=23.18U
M$556 VDD comp[22] \$387 VDD pfet_03v3 L=0.28U W=16.5U AS=5.577P AD=5.577P
+ PS=23.18U PD=23.18U
M$561 VDD \$384 \$387 VDD pfet_03v3 L=0.28U W=16.5U AS=5.577P AD=5.577P
+ PS=23.18U PD=23.18U
M$566 VDD comp[23] \$384 VDD pfet_03v3 L=0.28U W=16.5U AS=5.577P AD=5.577P
+ PS=23.18U PD=23.18U
M$571 VDD \$387 OUT|wl[22] VDD pfet_03v3 L=0.28U W=16.5U AS=5.577P AD=5.577P
+ PS=23.18U PD=23.18U
M$576 VDD comp[22] \$399 VDD pfet_03v3 L=0.28U W=16.5U AS=5.577P AD=5.577P
+ PS=23.18U PD=23.18U
M$581 VDD comp[23] \$399 VDD pfet_03v3 L=0.28U W=16.5U AS=5.577P AD=5.577P
+ PS=23.18U PD=23.18U
M$586 VDD \$400 \$399 VDD pfet_03v3 L=0.28U W=16.5U AS=5.577P AD=5.577P
+ PS=23.18U PD=23.18U
M$591 VDD comp[24] \$400 VDD pfet_03v3 L=0.28U W=16.5U AS=5.577P AD=5.577P
+ PS=23.18U PD=23.18U
M$596 VDD \$399 OUT|wl[23] VDD pfet_03v3 L=0.28U W=16.5U AS=5.577P AD=5.577P
+ PS=23.18U PD=23.18U
M$601 VDD comp[23] \$421 VDD pfet_03v3 L=0.28U W=16.5U AS=5.577P AD=5.577P
+ PS=23.18U PD=23.18U
M$606 VDD comp[24] \$421 VDD pfet_03v3 L=0.28U W=16.5U AS=5.577P AD=5.577P
+ PS=23.18U PD=23.18U
M$611 VDD \$418 \$421 VDD pfet_03v3 L=0.28U W=16.5U AS=5.577P AD=5.577P
+ PS=23.18U PD=23.18U
M$616 VDD comp[25] \$418 VDD pfet_03v3 L=0.28U W=16.5U AS=5.577P AD=5.577P
+ PS=23.18U PD=23.18U
M$621 VDD \$421 OUT|wl[24] VDD pfet_03v3 L=0.28U W=16.5U AS=5.577P AD=5.577P
+ PS=23.18U PD=23.18U
M$626 VDD comp[24] \$433 VDD pfet_03v3 L=0.28U W=16.5U AS=5.577P AD=5.577P
+ PS=23.18U PD=23.18U
M$631 VDD comp[25] \$433 VDD pfet_03v3 L=0.28U W=16.5U AS=5.577P AD=5.577P
+ PS=23.18U PD=23.18U
M$636 VDD \$434 \$433 VDD pfet_03v3 L=0.28U W=16.5U AS=5.577P AD=5.577P
+ PS=23.18U PD=23.18U
M$641 VDD comp[26] \$434 VDD pfet_03v3 L=0.28U W=16.5U AS=5.577P AD=5.577P
+ PS=23.18U PD=23.18U
M$646 VDD \$433 OUT|wl[25] VDD pfet_03v3 L=0.28U W=16.5U AS=5.577P AD=5.577P
+ PS=23.18U PD=23.18U
M$651 VDD comp[25] \$455 VDD pfet_03v3 L=0.28U W=16.5U AS=5.577P AD=5.577P
+ PS=23.18U PD=23.18U
M$656 VDD comp[26] \$455 VDD pfet_03v3 L=0.28U W=16.5U AS=5.577P AD=5.577P
+ PS=23.18U PD=23.18U
M$661 VDD \$452 \$455 VDD pfet_03v3 L=0.28U W=16.5U AS=5.577P AD=5.577P
+ PS=23.18U PD=23.18U
M$666 VDD comp[27] \$452 VDD pfet_03v3 L=0.28U W=16.5U AS=5.577P AD=5.577P
+ PS=23.18U PD=23.18U
M$671 VDD \$455 OUT|wl[26] VDD pfet_03v3 L=0.28U W=16.5U AS=5.577P AD=5.577P
+ PS=23.18U PD=23.18U
M$676 VDD comp[26] \$467 VDD pfet_03v3 L=0.28U W=16.5U AS=5.577P AD=5.577P
+ PS=23.18U PD=23.18U
M$681 VDD comp[27] \$467 VDD pfet_03v3 L=0.28U W=16.5U AS=5.577P AD=5.577P
+ PS=23.18U PD=23.18U
M$686 VDD \$468 \$467 VDD pfet_03v3 L=0.28U W=16.5U AS=5.577P AD=5.577P
+ PS=23.18U PD=23.18U
M$691 VDD comp[28] \$468 VDD pfet_03v3 L=0.28U W=16.5U AS=5.577P AD=5.577P
+ PS=23.18U PD=23.18U
M$696 VDD \$467 OUT|wl[27] VDD pfet_03v3 L=0.28U W=16.5U AS=5.577P AD=5.577P
+ PS=23.18U PD=23.18U
M$701 VDD comp[27] \$489 VDD pfet_03v3 L=0.28U W=16.5U AS=5.577P AD=5.577P
+ PS=23.18U PD=23.18U
M$706 VDD comp[28] \$489 VDD pfet_03v3 L=0.28U W=16.5U AS=5.577P AD=5.577P
+ PS=23.18U PD=23.18U
M$711 VDD \$486 \$489 VDD pfet_03v3 L=0.28U W=16.5U AS=5.577P AD=5.577P
+ PS=23.18U PD=23.18U
M$716 VDD comp[29] \$486 VDD pfet_03v3 L=0.28U W=16.5U AS=5.577P AD=5.577P
+ PS=23.18U PD=23.18U
M$721 VDD \$489 OUT|wl[28] VDD pfet_03v3 L=0.28U W=16.5U AS=5.577P AD=5.577P
+ PS=23.18U PD=23.18U
M$726 VDD comp[28] \$501 VDD pfet_03v3 L=0.28U W=16.5U AS=5.577P AD=5.577P
+ PS=23.18U PD=23.18U
M$731 VDD comp[29] \$501 VDD pfet_03v3 L=0.28U W=16.5U AS=5.577P AD=5.577P
+ PS=23.18U PD=23.18U
M$736 VDD \$502 \$501 VDD pfet_03v3 L=0.28U W=16.5U AS=5.577P AD=5.577P
+ PS=23.18U PD=23.18U
M$741 VDD comp[30] \$502 VDD pfet_03v3 L=0.28U W=16.5U AS=5.577P AD=5.577P
+ PS=23.18U PD=23.18U
M$746 VDD \$501 OUT|wl[29] VDD pfet_03v3 L=0.28U W=16.5U AS=5.577P AD=5.577P
+ PS=23.18U PD=23.18U
M$751 VDD comp[29] \$523 VDD pfet_03v3 L=0.28U W=16.5U AS=5.577P AD=5.577P
+ PS=23.18U PD=23.18U
M$756 VDD comp[30] \$523 VDD pfet_03v3 L=0.28U W=16.5U AS=5.577P AD=5.577P
+ PS=23.18U PD=23.18U
M$761 VDD \$520 \$523 VDD pfet_03v3 L=0.28U W=16.5U AS=5.577P AD=5.577P
+ PS=23.18U PD=23.18U
M$766 VDD comp[31] \$520 VDD pfet_03v3 L=0.28U W=16.5U AS=5.577P AD=5.577P
+ PS=23.18U PD=23.18U
M$771 VDD \$523 OUT|wl[30] VDD pfet_03v3 L=0.28U W=16.5U AS=5.577P AD=5.577P
+ PS=23.18U PD=23.18U
M$776 VDD comp[30] \$535 VDD pfet_03v3 L=0.28U W=16.5U AS=5.577P AD=5.577P
+ PS=23.18U PD=23.18U
M$781 VDD comp[31] \$535 VDD pfet_03v3 L=0.28U W=16.5U AS=5.577P AD=5.577P
+ PS=23.18U PD=23.18U
M$786 VDD \$536 \$535 VDD pfet_03v3 L=0.28U W=16.5U AS=5.577P AD=5.577P
+ PS=23.18U PD=23.18U
M$791 VDD comp[32] \$536 VDD pfet_03v3 L=0.28U W=16.5U AS=5.577P AD=5.577P
+ PS=23.18U PD=23.18U
M$796 VDD \$535 OUT|wl[31] VDD pfet_03v3 L=0.28U W=16.5U AS=5.577P AD=5.577P
+ PS=23.18U PD=23.18U
M$801 VDD comp[31] \$557 VDD pfet_03v3 L=0.28U W=16.5U AS=5.577P AD=5.577P
+ PS=23.18U PD=23.18U
M$806 VDD comp[32] \$557 VDD pfet_03v3 L=0.28U W=16.5U AS=5.577P AD=5.577P
+ PS=23.18U PD=23.18U
M$811 VDD \$554 \$557 VDD pfet_03v3 L=0.28U W=16.5U AS=5.577P AD=5.577P
+ PS=23.18U PD=23.18U
M$816 VDD comp[33] \$554 VDD pfet_03v3 L=0.28U W=16.5U AS=5.577P AD=5.577P
+ PS=23.18U PD=23.18U
M$821 VDD \$557 OUT|wl[32] VDD pfet_03v3 L=0.28U W=16.5U AS=5.577P AD=5.577P
+ PS=23.18U PD=23.18U
M$826 VDD comp[32] \$569 VDD pfet_03v3 L=0.28U W=16.5U AS=5.577P AD=5.577P
+ PS=23.18U PD=23.18U
M$831 VDD comp[33] \$569 VDD pfet_03v3 L=0.28U W=16.5U AS=5.577P AD=5.577P
+ PS=23.18U PD=23.18U
M$836 VDD \$570 \$569 VDD pfet_03v3 L=0.28U W=16.5U AS=5.577P AD=5.577P
+ PS=23.18U PD=23.18U
M$841 VDD comp[34] \$570 VDD pfet_03v3 L=0.28U W=16.5U AS=5.577P AD=5.577P
+ PS=23.18U PD=23.18U
M$846 VDD \$569 OUT|wl[33] VDD pfet_03v3 L=0.28U W=16.5U AS=5.577P AD=5.577P
+ PS=23.18U PD=23.18U
M$851 VDD comp[33] \$591 VDD pfet_03v3 L=0.28U W=16.5U AS=5.577P AD=5.577P
+ PS=23.18U PD=23.18U
M$856 VDD comp[34] \$591 VDD pfet_03v3 L=0.28U W=16.5U AS=5.577P AD=5.577P
+ PS=23.18U PD=23.18U
M$861 VDD \$588 \$591 VDD pfet_03v3 L=0.28U W=16.5U AS=5.577P AD=5.577P
+ PS=23.18U PD=23.18U
M$866 VDD comp[35] \$588 VDD pfet_03v3 L=0.28U W=16.5U AS=5.577P AD=5.577P
+ PS=23.18U PD=23.18U
M$871 VDD \$591 OUT|wl[34] VDD pfet_03v3 L=0.28U W=16.5U AS=5.577P AD=5.577P
+ PS=23.18U PD=23.18U
M$876 VDD comp[34] \$603 VDD pfet_03v3 L=0.28U W=16.5U AS=5.577P AD=5.577P
+ PS=23.18U PD=23.18U
M$881 VDD comp[35] \$603 VDD pfet_03v3 L=0.28U W=16.5U AS=5.577P AD=5.577P
+ PS=23.18U PD=23.18U
M$886 VDD \$604 \$603 VDD pfet_03v3 L=0.28U W=16.5U AS=5.577P AD=5.577P
+ PS=23.18U PD=23.18U
M$891 VDD comp[36] \$604 VDD pfet_03v3 L=0.28U W=16.5U AS=5.577P AD=5.577P
+ PS=23.18U PD=23.18U
M$896 VDD \$603 OUT|wl[35] VDD pfet_03v3 L=0.28U W=16.5U AS=5.577P AD=5.577P
+ PS=23.18U PD=23.18U
M$901 VDD comp[35] \$625 VDD pfet_03v3 L=0.28U W=16.5U AS=5.577P AD=5.577P
+ PS=23.18U PD=23.18U
M$906 VDD comp[36] \$625 VDD pfet_03v3 L=0.28U W=16.5U AS=5.577P AD=5.577P
+ PS=23.18U PD=23.18U
M$911 VDD \$622 \$625 VDD pfet_03v3 L=0.28U W=16.5U AS=5.577P AD=5.577P
+ PS=23.18U PD=23.18U
M$916 VDD comp[37] \$622 VDD pfet_03v3 L=0.28U W=16.5U AS=5.577P AD=5.577P
+ PS=23.18U PD=23.18U
M$921 VDD \$625 OUT|wl[36] VDD pfet_03v3 L=0.28U W=16.5U AS=5.577P AD=5.577P
+ PS=23.18U PD=23.18U
M$926 VDD comp[36] \$637 VDD pfet_03v3 L=0.28U W=16.5U AS=5.577P AD=5.577P
+ PS=23.18U PD=23.18U
M$931 VDD comp[37] \$637 VDD pfet_03v3 L=0.28U W=16.5U AS=5.577P AD=5.577P
+ PS=23.18U PD=23.18U
M$936 VDD \$638 \$637 VDD pfet_03v3 L=0.28U W=16.5U AS=5.577P AD=5.577P
+ PS=23.18U PD=23.18U
M$941 VDD comp[38] \$638 VDD pfet_03v3 L=0.28U W=16.5U AS=5.577P AD=5.577P
+ PS=23.18U PD=23.18U
M$946 VDD \$637 OUT|wl[37] VDD pfet_03v3 L=0.28U W=16.5U AS=5.577P AD=5.577P
+ PS=23.18U PD=23.18U
M$951 VDD comp[37] \$659 VDD pfet_03v3 L=0.28U W=16.5U AS=5.577P AD=5.577P
+ PS=23.18U PD=23.18U
M$956 VDD comp[38] \$659 VDD pfet_03v3 L=0.28U W=16.5U AS=5.577P AD=5.577P
+ PS=23.18U PD=23.18U
M$961 VDD \$656 \$659 VDD pfet_03v3 L=0.28U W=16.5U AS=5.577P AD=5.577P
+ PS=23.18U PD=23.18U
M$966 VDD comp[39] \$656 VDD pfet_03v3 L=0.28U W=16.5U AS=5.577P AD=5.577P
+ PS=23.18U PD=23.18U
M$971 VDD \$659 OUT|wl[38] VDD pfet_03v3 L=0.28U W=16.5U AS=5.577P AD=5.577P
+ PS=23.18U PD=23.18U
M$976 VDD comp[38] \$671 VDD pfet_03v3 L=0.28U W=16.5U AS=5.577P AD=5.577P
+ PS=23.18U PD=23.18U
M$981 VDD comp[39] \$671 VDD pfet_03v3 L=0.28U W=16.5U AS=5.577P AD=5.577P
+ PS=23.18U PD=23.18U
M$986 VDD \$672 \$671 VDD pfet_03v3 L=0.28U W=16.5U AS=5.577P AD=5.577P
+ PS=23.18U PD=23.18U
M$991 VDD comp[40] \$672 VDD pfet_03v3 L=0.28U W=16.5U AS=5.577P AD=5.577P
+ PS=23.18U PD=23.18U
M$996 VDD \$671 OUT|wl[39] VDD pfet_03v3 L=0.28U W=16.5U AS=5.577P AD=5.577P
+ PS=23.18U PD=23.18U
M$1001 VDD comp[39] \$693 VDD pfet_03v3 L=0.28U W=16.5U AS=5.577P AD=5.577P
+ PS=23.18U PD=23.18U
M$1006 VDD comp[40] \$693 VDD pfet_03v3 L=0.28U W=16.5U AS=5.577P AD=5.577P
+ PS=23.18U PD=23.18U
M$1011 VDD \$690 \$693 VDD pfet_03v3 L=0.28U W=16.5U AS=5.577P AD=5.577P
+ PS=23.18U PD=23.18U
M$1016 VDD comp[41] \$690 VDD pfet_03v3 L=0.28U W=16.5U AS=5.577P AD=5.577P
+ PS=23.18U PD=23.18U
M$1021 VDD \$693 OUT|wl[40] VDD pfet_03v3 L=0.28U W=16.5U AS=5.577P AD=5.577P
+ PS=23.18U PD=23.18U
M$1026 VDD comp[40] \$705 VDD pfet_03v3 L=0.28U W=16.5U AS=5.577P AD=5.577P
+ PS=23.18U PD=23.18U
M$1031 VDD comp[41] \$705 VDD pfet_03v3 L=0.28U W=16.5U AS=5.577P AD=5.577P
+ PS=23.18U PD=23.18U
M$1036 VDD \$706 \$705 VDD pfet_03v3 L=0.28U W=16.5U AS=5.577P AD=5.577P
+ PS=23.18U PD=23.18U
M$1041 VDD comp[42] \$706 VDD pfet_03v3 L=0.28U W=16.5U AS=5.577P AD=5.577P
+ PS=23.18U PD=23.18U
M$1046 VDD \$705 OUT|wl[41] VDD pfet_03v3 L=0.28U W=16.5U AS=5.577P AD=5.577P
+ PS=23.18U PD=23.18U
M$1051 VDD comp[41] \$727 VDD pfet_03v3 L=0.28U W=16.5U AS=5.577P AD=5.577P
+ PS=23.18U PD=23.18U
M$1056 VDD comp[42] \$727 VDD pfet_03v3 L=0.28U W=16.5U AS=5.577P AD=5.577P
+ PS=23.18U PD=23.18U
M$1061 VDD \$724 \$727 VDD pfet_03v3 L=0.28U W=16.5U AS=5.577P AD=5.577P
+ PS=23.18U PD=23.18U
M$1066 VDD comp[43] \$724 VDD pfet_03v3 L=0.28U W=16.5U AS=5.577P AD=5.577P
+ PS=23.18U PD=23.18U
M$1071 VDD \$727 OUT|wl[42] VDD pfet_03v3 L=0.28U W=16.5U AS=5.577P AD=5.577P
+ PS=23.18U PD=23.18U
M$1076 VDD comp[42] \$739 VDD pfet_03v3 L=0.28U W=16.5U AS=5.577P AD=5.577P
+ PS=23.18U PD=23.18U
M$1081 VDD comp[43] \$739 VDD pfet_03v3 L=0.28U W=16.5U AS=5.577P AD=5.577P
+ PS=23.18U PD=23.18U
M$1086 VDD \$740 \$739 VDD pfet_03v3 L=0.28U W=16.5U AS=5.577P AD=5.577P
+ PS=23.18U PD=23.18U
M$1091 VDD comp[44] \$740 VDD pfet_03v3 L=0.28U W=16.5U AS=5.577P AD=5.577P
+ PS=23.18U PD=23.18U
M$1096 VDD \$739 OUT|wl[43] VDD pfet_03v3 L=0.28U W=16.5U AS=5.577P AD=5.577P
+ PS=23.18U PD=23.18U
M$1101 VDD comp[43] \$761 VDD pfet_03v3 L=0.28U W=16.5U AS=5.577P AD=5.577P
+ PS=23.18U PD=23.18U
M$1106 VDD comp[44] \$761 VDD pfet_03v3 L=0.28U W=16.5U AS=5.577P AD=5.577P
+ PS=23.18U PD=23.18U
M$1111 VDD \$758 \$761 VDD pfet_03v3 L=0.28U W=16.5U AS=5.577P AD=5.577P
+ PS=23.18U PD=23.18U
M$1116 VDD comp[45] \$758 VDD pfet_03v3 L=0.28U W=16.5U AS=5.577P AD=5.577P
+ PS=23.18U PD=23.18U
M$1121 VDD \$761 OUT|wl[44] VDD pfet_03v3 L=0.28U W=16.5U AS=5.577P AD=5.577P
+ PS=23.18U PD=23.18U
M$1126 VDD comp[44] \$773 VDD pfet_03v3 L=0.28U W=16.5U AS=5.577P AD=5.577P
+ PS=23.18U PD=23.18U
M$1131 VDD comp[45] \$773 VDD pfet_03v3 L=0.28U W=16.5U AS=5.577P AD=5.577P
+ PS=23.18U PD=23.18U
M$1136 VDD \$774 \$773 VDD pfet_03v3 L=0.28U W=16.5U AS=5.577P AD=5.577P
+ PS=23.18U PD=23.18U
M$1141 VDD comp[46] \$774 VDD pfet_03v3 L=0.28U W=16.5U AS=5.577P AD=5.577P
+ PS=23.18U PD=23.18U
M$1146 VDD \$773 OUT|wl[45] VDD pfet_03v3 L=0.28U W=16.5U AS=5.577P AD=5.577P
+ PS=23.18U PD=23.18U
M$1151 VDD comp[45] \$795 VDD pfet_03v3 L=0.28U W=16.5U AS=5.577P AD=5.577P
+ PS=23.18U PD=23.18U
M$1156 VDD comp[46] \$795 VDD pfet_03v3 L=0.28U W=16.5U AS=5.577P AD=5.577P
+ PS=23.18U PD=23.18U
M$1161 VDD \$792 \$795 VDD pfet_03v3 L=0.28U W=16.5U AS=5.577P AD=5.577P
+ PS=23.18U PD=23.18U
M$1166 VDD comp[47] \$792 VDD pfet_03v3 L=0.28U W=16.5U AS=5.577P AD=5.577P
+ PS=23.18U PD=23.18U
M$1171 VDD \$795 OUT|wl[46] VDD pfet_03v3 L=0.28U W=16.5U AS=5.577P AD=5.577P
+ PS=23.18U PD=23.18U
M$1176 VDD comp[46] \$807 VDD pfet_03v3 L=0.28U W=16.5U AS=5.577P AD=5.577P
+ PS=23.18U PD=23.18U
M$1181 VDD comp[47] \$807 VDD pfet_03v3 L=0.28U W=16.5U AS=5.577P AD=5.577P
+ PS=23.18U PD=23.18U
M$1186 VDD \$808 \$807 VDD pfet_03v3 L=0.28U W=16.5U AS=5.577P AD=5.577P
+ PS=23.18U PD=23.18U
M$1191 VDD comp[48] \$808 VDD pfet_03v3 L=0.28U W=16.5U AS=5.577P AD=5.577P
+ PS=23.18U PD=23.18U
M$1196 VDD \$807 OUT|wl[47] VDD pfet_03v3 L=0.28U W=16.5U AS=5.577P AD=5.577P
+ PS=23.18U PD=23.18U
M$1201 VDD comp[47] \$829 VDD pfet_03v3 L=0.28U W=16.5U AS=5.577P AD=5.577P
+ PS=23.18U PD=23.18U
M$1206 VDD comp[48] \$829 VDD pfet_03v3 L=0.28U W=16.5U AS=5.577P AD=5.577P
+ PS=23.18U PD=23.18U
M$1211 VDD \$826 \$829 VDD pfet_03v3 L=0.28U W=16.5U AS=5.577P AD=5.577P
+ PS=23.18U PD=23.18U
M$1216 VDD comp[49] \$826 VDD pfet_03v3 L=0.28U W=16.5U AS=5.577P AD=5.577P
+ PS=23.18U PD=23.18U
M$1221 VDD \$829 OUT|wl[48] VDD pfet_03v3 L=0.28U W=16.5U AS=5.577P AD=5.577P
+ PS=23.18U PD=23.18U
M$1226 VDD comp[48] \$841 VDD pfet_03v3 L=0.28U W=16.5U AS=5.577P AD=5.577P
+ PS=23.18U PD=23.18U
M$1231 VDD comp[49] \$841 VDD pfet_03v3 L=0.28U W=16.5U AS=5.577P AD=5.577P
+ PS=23.18U PD=23.18U
M$1236 VDD \$842 \$841 VDD pfet_03v3 L=0.28U W=16.5U AS=5.577P AD=5.577P
+ PS=23.18U PD=23.18U
M$1241 VDD comp[50] \$842 VDD pfet_03v3 L=0.28U W=16.5U AS=5.577P AD=5.577P
+ PS=23.18U PD=23.18U
M$1246 VDD \$841 OUT|wl[49] VDD pfet_03v3 L=0.28U W=16.5U AS=5.577P AD=5.577P
+ PS=23.18U PD=23.18U
M$1251 VDD comp[49] \$863 VDD pfet_03v3 L=0.28U W=16.5U AS=5.577P AD=5.577P
+ PS=23.18U PD=23.18U
M$1256 VDD comp[50] \$863 VDD pfet_03v3 L=0.28U W=16.5U AS=5.577P AD=5.577P
+ PS=23.18U PD=23.18U
M$1261 VDD \$860 \$863 VDD pfet_03v3 L=0.28U W=16.5U AS=5.577P AD=5.577P
+ PS=23.18U PD=23.18U
M$1266 VDD comp[51] \$860 VDD pfet_03v3 L=0.28U W=16.5U AS=5.577P AD=5.577P
+ PS=23.18U PD=23.18U
M$1271 VDD \$863 OUT|wl[50] VDD pfet_03v3 L=0.28U W=16.5U AS=5.577P AD=5.577P
+ PS=23.18U PD=23.18U
M$1276 VDD comp[50] \$875 VDD pfet_03v3 L=0.28U W=16.5U AS=5.577P AD=5.577P
+ PS=23.18U PD=23.18U
M$1281 VDD comp[51] \$875 VDD pfet_03v3 L=0.28U W=16.5U AS=5.577P AD=5.577P
+ PS=23.18U PD=23.18U
M$1286 VDD \$876 \$875 VDD pfet_03v3 L=0.28U W=16.5U AS=5.577P AD=5.577P
+ PS=23.18U PD=23.18U
M$1291 VDD comp[52] \$876 VDD pfet_03v3 L=0.28U W=16.5U AS=5.577P AD=5.577P
+ PS=23.18U PD=23.18U
M$1296 VDD \$875 OUT|wl[51] VDD pfet_03v3 L=0.28U W=16.5U AS=5.577P AD=5.577P
+ PS=23.18U PD=23.18U
M$1301 VDD comp[51] \$897 VDD pfet_03v3 L=0.28U W=16.5U AS=5.577P AD=5.577P
+ PS=23.18U PD=23.18U
M$1306 VDD comp[52] \$897 VDD pfet_03v3 L=0.28U W=16.5U AS=5.577P AD=5.577P
+ PS=23.18U PD=23.18U
M$1311 VDD \$894 \$897 VDD pfet_03v3 L=0.28U W=16.5U AS=5.577P AD=5.577P
+ PS=23.18U PD=23.18U
M$1316 VDD comp[53] \$894 VDD pfet_03v3 L=0.28U W=16.5U AS=5.577P AD=5.577P
+ PS=23.18U PD=23.18U
M$1321 VDD \$897 OUT|wl[52] VDD pfet_03v3 L=0.28U W=16.5U AS=5.577P AD=5.577P
+ PS=23.18U PD=23.18U
M$1326 VDD comp[52] \$909 VDD pfet_03v3 L=0.28U W=16.5U AS=5.577P AD=5.577P
+ PS=23.18U PD=23.18U
M$1331 VDD comp[53] \$909 VDD pfet_03v3 L=0.28U W=16.5U AS=5.577P AD=5.577P
+ PS=23.18U PD=23.18U
M$1336 VDD \$910 \$909 VDD pfet_03v3 L=0.28U W=16.5U AS=5.577P AD=5.577P
+ PS=23.18U PD=23.18U
M$1341 VDD comp[54] \$910 VDD pfet_03v3 L=0.28U W=16.5U AS=5.577P AD=5.577P
+ PS=23.18U PD=23.18U
M$1346 VDD \$909 OUT|wl[53] VDD pfet_03v3 L=0.28U W=16.5U AS=5.577P AD=5.577P
+ PS=23.18U PD=23.18U
M$1351 VDD comp[53] \$931 VDD pfet_03v3 L=0.28U W=16.5U AS=5.577P AD=5.577P
+ PS=23.18U PD=23.18U
M$1356 VDD comp[54] \$931 VDD pfet_03v3 L=0.28U W=16.5U AS=5.577P AD=5.577P
+ PS=23.18U PD=23.18U
M$1361 VDD \$928 \$931 VDD pfet_03v3 L=0.28U W=16.5U AS=5.577P AD=5.577P
+ PS=23.18U PD=23.18U
M$1366 VDD comp[55] \$928 VDD pfet_03v3 L=0.28U W=16.5U AS=5.577P AD=5.577P
+ PS=23.18U PD=23.18U
M$1371 VDD \$931 OUT|wl[54] VDD pfet_03v3 L=0.28U W=16.5U AS=5.577P AD=5.577P
+ PS=23.18U PD=23.18U
M$1376 VDD comp[54] \$943 VDD pfet_03v3 L=0.28U W=16.5U AS=5.577P AD=5.577P
+ PS=23.18U PD=23.18U
M$1381 VDD comp[55] \$943 VDD pfet_03v3 L=0.28U W=16.5U AS=5.577P AD=5.577P
+ PS=23.18U PD=23.18U
M$1386 VDD \$944 \$943 VDD pfet_03v3 L=0.28U W=16.5U AS=5.577P AD=5.577P
+ PS=23.18U PD=23.18U
M$1391 VDD comp[56] \$944 VDD pfet_03v3 L=0.28U W=16.5U AS=5.577P AD=5.577P
+ PS=23.18U PD=23.18U
M$1396 VDD \$943 OUT|wl[55] VDD pfet_03v3 L=0.28U W=16.5U AS=5.577P AD=5.577P
+ PS=23.18U PD=23.18U
M$1401 VDD comp[55] \$965 VDD pfet_03v3 L=0.28U W=16.5U AS=5.577P AD=5.577P
+ PS=23.18U PD=23.18U
M$1406 VDD comp[56] \$965 VDD pfet_03v3 L=0.28U W=16.5U AS=5.577P AD=5.577P
+ PS=23.18U PD=23.18U
M$1411 VDD \$962 \$965 VDD pfet_03v3 L=0.28U W=16.5U AS=5.577P AD=5.577P
+ PS=23.18U PD=23.18U
M$1416 VDD comp[57] \$962 VDD pfet_03v3 L=0.28U W=16.5U AS=5.577P AD=5.577P
+ PS=23.18U PD=23.18U
M$1421 VDD \$965 OUT|wl[56] VDD pfet_03v3 L=0.28U W=16.5U AS=5.577P AD=5.577P
+ PS=23.18U PD=23.18U
M$1426 VDD comp[56] \$977 VDD pfet_03v3 L=0.28U W=16.5U AS=5.577P AD=5.577P
+ PS=23.18U PD=23.18U
M$1431 VDD comp[57] \$977 VDD pfet_03v3 L=0.28U W=16.5U AS=5.577P AD=5.577P
+ PS=23.18U PD=23.18U
M$1436 VDD \$978 \$977 VDD pfet_03v3 L=0.28U W=16.5U AS=5.577P AD=5.577P
+ PS=23.18U PD=23.18U
M$1441 VDD comp[58] \$978 VDD pfet_03v3 L=0.28U W=16.5U AS=5.577P AD=5.577P
+ PS=23.18U PD=23.18U
M$1446 VDD \$977 OUT|wl[57] VDD pfet_03v3 L=0.28U W=16.5U AS=5.577P AD=5.577P
+ PS=23.18U PD=23.18U
M$1451 VDD comp[57] \$999 VDD pfet_03v3 L=0.28U W=16.5U AS=5.577P AD=5.577P
+ PS=23.18U PD=23.18U
M$1456 VDD comp[58] \$999 VDD pfet_03v3 L=0.28U W=16.5U AS=5.577P AD=5.577P
+ PS=23.18U PD=23.18U
M$1461 VDD \$996 \$999 VDD pfet_03v3 L=0.28U W=16.5U AS=5.577P AD=5.577P
+ PS=23.18U PD=23.18U
M$1466 VDD comp[59] \$996 VDD pfet_03v3 L=0.28U W=16.5U AS=5.577P AD=5.577P