* Extracted by KLayout with GF180MCU LVS runset on : 19/06/2026 17:51

.SUBCKT tm_to_bin2 GND out|wl[0] B|comp[1] VDD B|comp[0] out|wl[1] B|comp[2]
+ out|wl[2] B|comp[3] out|wl[3] B|comp[4] out|wl[4] B|comp[5] out|wl[5]
+ B|comp[6] out|wl[6] B|comp[7] out|wl[7] B|comp[8] out|wl[8] B|comp[9]
+ out|wl[9] B|comp[10] out|wl[10] B|comp[11] out|wl[11] B|comp[12] out|wl[12]
+ B|comp[13] out|wl[13] B|comp[14] out|wl[14] B|comp[15] out|wl[15] B|comp[16]
+ out|wl[16] B|comp[17] out|wl[17] B|comp[18] out|wl[18] B|comp[19] out|wl[19]
+ B|comp[20] out|wl[20] B|comp[21] out|wl[21] B|comp[22] out|wl[22] B|comp[23]
+ out|wl[23] B|comp[24] out|wl[24] B|comp[25] out|wl[25] B|comp[26] out|wl[26]
+ B|comp[27] out|wl[27] B|comp[28] out|wl[28] B|comp[29] out|wl[29] B|comp[30]
+ out|wl[30] B|comp[31] out|wl[31] B|comp[32] out|wl[32] B|comp[33] out|wl[33]
+ B|comp[34] out|wl[34] B|comp[35] out|wl[35] B|comp[36] out|wl[36] B|comp[37]
+ out|wl[37] B|comp[38] out|wl[38] B|comp[39] out|wl[39] B|comp[40] out|wl[40]
+ B|comp[41] out|wl[41] B|comp[42] out|wl[42] B|comp[43] out|wl[43] B|comp[44]
+ out|wl[44] B|comp[45] out|wl[45] B|comp[46] out|wl[46] B|comp[47] out|wl[47]
+ B|comp[48] out|wl[48] B|comp[49] out|wl[49] B|comp[50] out|wl[50] B|comp[51]
+ out|wl[51] B|comp[52] out|wl[52] B|comp[53] out|wl[53] B|comp[54] out|wl[54]
+ B|comp[55] out|wl[55] B|comp[56] out|wl[56] B|comp[57] out|wl[57] B|comp[58]
+ out|wl[58] B|comp[59] out|wl[59] B|comp[60] out|wl[60] B|comp[61] out|wl[61]
+ B|comp[62] out|wl[62]
M$1 \$2 B|comp[1] VDD VDD pfet_03v3 L=0.28U W=2U AS=1.3P AD=1.3P PS=5.3U PD=5.3U
M$2 \$3 VDD VDD VDD pfet_03v3 L=0.28U W=2U AS=1.3P AD=0.84P PS=5.3U PD=2.84U
M$3 VDD B|comp[0] \$3 VDD pfet_03v3 L=0.28U W=2U AS=0.84P AD=0.84P PS=2.84U
+ PD=2.84U
M$4 \$3 \$2 VDD VDD pfet_03v3 L=0.28U W=2U AS=0.84P AD=1.3P PS=2.84U PD=5.3U
M$5 VDD \$3 out|wl[0] VDD pfet_03v3 L=0.28U W=2U AS=1.3P AD=1.3P PS=5.3U PD=5.3U
M$6 \$18 B|comp[2] VDD VDD pfet_03v3 L=0.28U W=2U AS=1.3P AD=1.3P PS=5.3U
+ PD=5.3U
M$7 \$19 B|comp[0] VDD VDD pfet_03v3 L=0.28U W=2U AS=1.3P AD=0.84P PS=5.3U
+ PD=2.84U
M$8 VDD B|comp[1] \$19 VDD pfet_03v3 L=0.28U W=2U AS=0.84P AD=0.84P PS=2.84U
+ PD=2.84U
M$9 \$19 \$18 VDD VDD pfet_03v3 L=0.28U W=2U AS=0.84P AD=1.3P PS=2.84U PD=5.3U
M$10 VDD \$19 out|wl[1] VDD pfet_03v3 L=0.28U W=2U AS=1.3P AD=1.3P PS=5.3U
+ PD=5.3U
M$11 \$31 B|comp[3] VDD VDD pfet_03v3 L=0.28U W=2U AS=1.3P AD=1.3P PS=5.3U
+ PD=5.3U
M$12 \$32 B|comp[1] VDD VDD pfet_03v3 L=0.28U W=2U AS=1.3P AD=0.84P PS=5.3U
+ PD=2.84U
M$13 VDD B|comp[2] \$32 VDD pfet_03v3 L=0.28U W=2U AS=0.84P AD=0.84P PS=2.84U
+ PD=2.84U
M$14 \$32 \$31 VDD VDD pfet_03v3 L=0.28U W=2U AS=0.84P AD=1.3P PS=2.84U PD=5.3U
M$15 VDD \$32 out|wl[2] VDD pfet_03v3 L=0.28U W=2U AS=1.3P AD=1.3P PS=5.3U
+ PD=5.3U
M$16 \$44 B|comp[4] VDD VDD pfet_03v3 L=0.28U W=2U AS=1.3P AD=1.3P PS=5.3U
+ PD=5.3U
M$17 \$45 B|comp[2] VDD VDD pfet_03v3 L=0.28U W=2U AS=1.3P AD=0.84P PS=5.3U
+ PD=2.84U
M$18 VDD B|comp[3] \$45 VDD pfet_03v3 L=0.28U W=2U AS=0.84P AD=0.84P PS=2.84U
+ PD=2.84U
M$19 \$45 \$44 VDD VDD pfet_03v3 L=0.28U W=2U AS=0.84P AD=1.3P PS=2.84U PD=5.3U
M$20 VDD \$45 out|wl[3] VDD pfet_03v3 L=0.28U W=2U AS=1.3P AD=1.3P PS=5.3U
+ PD=5.3U
M$21 \$57 B|comp[5] VDD VDD pfet_03v3 L=0.28U W=2U AS=1.3P AD=1.3P PS=5.3U
+ PD=5.3U
M$22 \$58 B|comp[3] VDD VDD pfet_03v3 L=0.28U W=2U AS=1.3P AD=0.84P PS=5.3U
+ PD=2.84U
M$23 VDD B|comp[4] \$58 VDD pfet_03v3 L=0.28U W=2U AS=0.84P AD=0.84P PS=2.84U
+ PD=2.84U
M$24 \$58 \$57 VDD VDD pfet_03v3 L=0.28U W=2U AS=0.84P AD=1.3P PS=2.84U PD=5.3U
M$25 VDD \$58 out|wl[4] VDD pfet_03v3 L=0.28U W=2U AS=1.3P AD=1.3P PS=5.3U
+ PD=5.3U
M$26 \$70 B|comp[6] VDD VDD pfet_03v3 L=0.28U W=2U AS=1.3P AD=1.3P PS=5.3U
+ PD=5.3U
M$27 \$71 B|comp[4] VDD VDD pfet_03v3 L=0.28U W=2U AS=1.3P AD=0.84P PS=5.3U
+ PD=2.84U
M$28 VDD B|comp[5] \$71 VDD pfet_03v3 L=0.28U W=2U AS=0.84P AD=0.84P PS=2.84U
+ PD=2.84U
M$29 \$71 \$70 VDD VDD pfet_03v3 L=0.28U W=2U AS=0.84P AD=1.3P PS=2.84U PD=5.3U
M$30 VDD \$71 out|wl[5] VDD pfet_03v3 L=0.28U W=2U AS=1.3P AD=1.3P PS=5.3U
+ PD=5.3U
M$31 \$83 B|comp[7] VDD VDD pfet_03v3 L=0.28U W=2U AS=1.3P AD=1.3P PS=5.3U
+ PD=5.3U
M$32 \$84 B|comp[5] VDD VDD pfet_03v3 L=0.28U W=2U AS=1.3P AD=0.84P PS=5.3U
+ PD=2.84U
M$33 VDD B|comp[6] \$84 VDD pfet_03v3 L=0.28U W=2U AS=0.84P AD=0.84P PS=2.84U
+ PD=2.84U
M$34 \$84 \$83 VDD VDD pfet_03v3 L=0.28U W=2U AS=0.84P AD=1.3P PS=2.84U PD=5.3U
M$35 VDD \$84 out|wl[6] VDD pfet_03v3 L=0.28U W=2U AS=1.3P AD=1.3P PS=5.3U
+ PD=5.3U
M$36 \$96 B|comp[8] VDD VDD pfet_03v3 L=0.28U W=2U AS=1.3P AD=1.3P PS=5.3U
+ PD=5.3U
M$37 \$97 B|comp[6] VDD VDD pfet_03v3 L=0.28U W=2U AS=1.3P AD=0.84P PS=5.3U
+ PD=2.84U
M$38 VDD B|comp[7] \$97 VDD pfet_03v3 L=0.28U W=2U AS=0.84P AD=0.84P PS=2.84U
+ PD=2.84U
M$39 \$97 \$96 VDD VDD pfet_03v3 L=0.28U W=2U AS=0.84P AD=1.3P PS=2.84U PD=5.3U
M$40 VDD \$97 out|wl[7] VDD pfet_03v3 L=0.28U W=2U AS=1.3P AD=1.3P PS=5.3U
+ PD=5.3U
M$41 \$109 B|comp[9] VDD VDD pfet_03v3 L=0.28U W=2U AS=1.3P AD=1.3P PS=5.3U
+ PD=5.3U
M$42 \$110 B|comp[7] VDD VDD pfet_03v3 L=0.28U W=2U AS=1.3P AD=0.84P PS=5.3U
+ PD=2.84U
M$43 VDD B|comp[8] \$110 VDD pfet_03v3 L=0.28U W=2U AS=0.84P AD=0.84P PS=2.84U
+ PD=2.84U
M$44 \$110 \$109 VDD VDD pfet_03v3 L=0.28U W=2U AS=0.84P AD=1.3P PS=2.84U
+ PD=5.3U
M$45 VDD \$110 out|wl[8] VDD pfet_03v3 L=0.28U W=2U AS=1.3P AD=1.3P PS=5.3U
+ PD=5.3U
M$46 \$122 B|comp[10] VDD VDD pfet_03v3 L=0.28U W=2U AS=1.3P AD=1.3P PS=5.3U
+ PD=5.3U
M$47 \$123 B|comp[8] VDD VDD pfet_03v3 L=0.28U W=2U AS=1.3P AD=0.84P PS=5.3U
+ PD=2.84U
M$48 VDD B|comp[9] \$123 VDD pfet_03v3 L=0.28U W=2U AS=0.84P AD=0.84P PS=2.84U
+ PD=2.84U
M$49 \$123 \$122 VDD VDD pfet_03v3 L=0.28U W=2U AS=0.84P AD=1.3P PS=2.84U
+ PD=5.3U
M$50 VDD \$123 out|wl[9] VDD pfet_03v3 L=0.28U W=2U AS=1.3P AD=1.3P PS=5.3U
+ PD=5.3U
M$51 \$135 B|comp[11] VDD VDD pfet_03v3 L=0.28U W=2U AS=1.3P AD=1.3P PS=5.3U
+ PD=5.3U
M$52 \$136 B|comp[9] VDD VDD pfet_03v3 L=0.28U W=2U AS=1.3P AD=0.84P PS=5.3U
+ PD=2.84U
M$53 VDD B|comp[10] \$136 VDD pfet_03v3 L=0.28U W=2U AS=0.84P AD=0.84P PS=2.84U
+ PD=2.84U
M$54 \$136 \$135 VDD VDD pfet_03v3 L=0.28U W=2U AS=0.84P AD=1.3P PS=2.84U
+ PD=5.3U
M$55 VDD \$136 out|wl[10] VDD pfet_03v3 L=0.28U W=2U AS=1.3P AD=1.3P PS=5.3U
+ PD=5.3U
M$56 \$148 B|comp[12] VDD VDD pfet_03v3 L=0.28U W=2U AS=1.3P AD=1.3P PS=5.3U
+ PD=5.3U
M$57 \$149 B|comp[10] VDD VDD pfet_03v3 L=0.28U W=2U AS=1.3P AD=0.84P PS=5.3U
+ PD=2.84U
M$58 VDD B|comp[11] \$149 VDD pfet_03v3 L=0.28U W=2U AS=0.84P AD=0.84P PS=2.84U
+ PD=2.84U
M$59 \$149 \$148 VDD VDD pfet_03v3 L=0.28U W=2U AS=0.84P AD=1.3P PS=2.84U
+ PD=5.3U
M$60 VDD \$149 out|wl[11] VDD pfet_03v3 L=0.28U W=2U AS=1.3P AD=1.3P PS=5.3U
+ PD=5.3U
M$61 \$161 B|comp[13] VDD VDD pfet_03v3 L=0.28U W=2U AS=1.3P AD=1.3P PS=5.3U
+ PD=5.3U
M$62 \$162 B|comp[11] VDD VDD pfet_03v3 L=0.28U W=2U AS=1.3P AD=0.84P PS=5.3U
+ PD=2.84U
M$63 VDD B|comp[12] \$162 VDD pfet_03v3 L=0.28U W=2U AS=0.84P AD=0.84P PS=2.84U
+ PD=2.84U
M$64 \$162 \$161 VDD VDD pfet_03v3 L=0.28U W=2U AS=0.84P AD=1.3P PS=2.84U
+ PD=5.3U
M$65 VDD \$162 out|wl[12] VDD pfet_03v3 L=0.28U W=2U AS=1.3P AD=1.3P PS=5.3U
+ PD=5.3U
M$66 \$174 B|comp[14] VDD VDD pfet_03v3 L=0.28U W=2U AS=1.3P AD=1.3P PS=5.3U
+ PD=5.3U
M$67 \$175 B|comp[12] VDD VDD pfet_03v3 L=0.28U W=2U AS=1.3P AD=0.84P PS=5.3U
+ PD=2.84U
M$68 VDD B|comp[13] \$175 VDD pfet_03v3 L=0.28U W=2U AS=0.84P AD=0.84P PS=2.84U
+ PD=2.84U
M$69 \$175 \$174 VDD VDD pfet_03v3 L=0.28U W=2U AS=0.84P AD=1.3P PS=2.84U
+ PD=5.3U
M$70 VDD \$175 out|wl[13] VDD pfet_03v3 L=0.28U W=2U AS=1.3P AD=1.3P PS=5.3U
+ PD=5.3U
M$71 \$187 B|comp[15] VDD VDD pfet_03v3 L=0.28U W=2U AS=1.3P AD=1.3P PS=5.3U
+ PD=5.3U
M$72 \$188 B|comp[13] VDD VDD pfet_03v3 L=0.28U W=2U AS=1.3P AD=0.84P PS=5.3U
+ PD=2.84U
M$73 VDD B|comp[14] \$188 VDD pfet_03v3 L=0.28U W=2U AS=0.84P AD=0.84P PS=2.84U
+ PD=2.84U
M$74 \$188 \$187 VDD VDD pfet_03v3 L=0.28U W=2U AS=0.84P AD=1.3P PS=2.84U
+ PD=5.3U
M$75 VDD \$188 out|wl[14] VDD pfet_03v3 L=0.28U W=2U AS=1.3P AD=1.3P PS=5.3U
+ PD=5.3U
M$76 \$200 B|comp[16] VDD VDD pfet_03v3 L=0.28U W=2U AS=1.3P AD=1.3P PS=5.3U
+ PD=5.3U
M$77 \$201 B|comp[14] VDD VDD pfet_03v3 L=0.28U W=2U AS=1.3P AD=0.84P PS=5.3U
+ PD=2.84U
M$78 VDD B|comp[15] \$201 VDD pfet_03v3 L=0.28U W=2U AS=0.84P AD=0.84P PS=2.84U
+ PD=2.84U
M$79 \$201 \$200 VDD VDD pfet_03v3 L=0.28U W=2U AS=0.84P AD=1.3P PS=2.84U
+ PD=5.3U
M$80 VDD \$201 out|wl[15] VDD pfet_03v3 L=0.28U W=2U AS=1.3P AD=1.3P PS=5.3U
+ PD=5.3U
M$81 \$213 B|comp[17] VDD VDD pfet_03v3 L=0.28U W=2U AS=1.3P AD=1.3P PS=5.3U
+ PD=5.3U
M$82 \$214 B|comp[15] VDD VDD pfet_03v3 L=0.28U W=2U AS=1.3P AD=0.84P PS=5.3U
+ PD=2.84U
M$83 VDD B|comp[16] \$214 VDD pfet_03v3 L=0.28U W=2U AS=0.84P AD=0.84P PS=2.84U
+ PD=2.84U
M$84 \$214 \$213 VDD VDD pfet_03v3 L=0.28U W=2U AS=0.84P AD=1.3P PS=2.84U
+ PD=5.3U
M$85 VDD \$214 out|wl[16] VDD pfet_03v3 L=0.28U W=2U AS=1.3P AD=1.3P PS=5.3U
+ PD=5.3U
M$86 \$226 B|comp[18] VDD VDD pfet_03v3 L=0.28U W=2U AS=1.3P AD=1.3P PS=5.3U
+ PD=5.3U
M$87 \$227 B|comp[16] VDD VDD pfet_03v3 L=0.28U W=2U AS=1.3P AD=0.84P PS=5.3U
+ PD=2.84U
M$88 VDD B|comp[17] \$227 VDD pfet_03v3 L=0.28U W=2U AS=0.84P AD=0.84P PS=2.84U
+ PD=2.84U
M$89 \$227 \$226 VDD VDD pfet_03v3 L=0.28U W=2U AS=0.84P AD=1.3P PS=2.84U
+ PD=5.3U
M$90 VDD \$227 out|wl[17] VDD pfet_03v3 L=0.28U W=2U AS=1.3P AD=1.3P PS=5.3U
+ PD=5.3U
M$91 \$239 B|comp[19] VDD VDD pfet_03v3 L=0.28U W=2U AS=1.3P AD=1.3P PS=5.3U
+ PD=5.3U
M$92 \$240 B|comp[17] VDD VDD pfet_03v3 L=0.28U W=2U AS=1.3P AD=0.84P PS=5.3U
+ PD=2.84U
M$93 VDD B|comp[18] \$240 VDD pfet_03v3 L=0.28U W=2U AS=0.84P AD=0.84P PS=2.84U
+ PD=2.84U
M$94 \$240 \$239 VDD VDD pfet_03v3 L=0.28U W=2U AS=0.84P AD=1.3P PS=2.84U
+ PD=5.3U
M$95 VDD \$240 out|wl[18] VDD pfet_03v3 L=0.28U W=2U AS=1.3P AD=1.3P PS=5.3U
+ PD=5.3U
M$96 \$252 B|comp[20] VDD VDD pfet_03v3 L=0.28U W=2U AS=1.3P AD=1.3P PS=5.3U
+ PD=5.3U
M$97 \$253 B|comp[18] VDD VDD pfet_03v3 L=0.28U W=2U AS=1.3P AD=0.84P PS=5.3U
+ PD=2.84U
M$98 VDD B|comp[19] \$253 VDD pfet_03v3 L=0.28U W=2U AS=0.84P AD=0.84P PS=2.84U
+ PD=2.84U
M$99 \$253 \$252 VDD VDD pfet_03v3 L=0.28U W=2U AS=0.84P AD=1.3P PS=2.84U
+ PD=5.3U
M$100 VDD \$253 out|wl[19] VDD pfet_03v3 L=0.28U W=2U AS=1.3P AD=1.3P PS=5.3U
+ PD=5.3U
M$101 \$265 B|comp[21] VDD VDD pfet_03v3 L=0.28U W=2U AS=1.3P AD=1.3P PS=5.3U
+ PD=5.3U
M$102 \$266 B|comp[19] VDD VDD pfet_03v3 L=0.28U W=2U AS=1.3P AD=0.84P PS=5.3U
+ PD=2.84U
M$103 VDD B|comp[20] \$266 VDD pfet_03v3 L=0.28U W=2U AS=0.84P AD=0.84P
+ PS=2.84U PD=2.84U
M$104 \$266 \$265 VDD VDD pfet_03v3 L=0.28U W=2U AS=0.84P AD=1.3P PS=2.84U
+ PD=5.3U
M$105 VDD \$266 out|wl[20] VDD pfet_03v3 L=0.28U W=2U AS=1.3P AD=1.3P PS=5.3U
+ PD=5.3U
M$106 \$278 B|comp[22] VDD VDD pfet_03v3 L=0.28U W=2U AS=1.3P AD=1.3P PS=5.3U
+ PD=5.3U
M$107 \$279 B|comp[20] VDD VDD pfet_03v3 L=0.28U W=2U AS=1.3P AD=0.84P PS=5.3U
+ PD=2.84U
M$108 VDD B|comp[21] \$279 VDD pfet_03v3 L=0.28U W=2U AS=0.84P AD=0.84P
+ PS=2.84U PD=2.84U
M$109 \$279 \$278 VDD VDD pfet_03v3 L=0.28U W=2U AS=0.84P AD=1.3P PS=2.84U
+ PD=5.3U
M$110 VDD \$279 out|wl[21] VDD pfet_03v3 L=0.28U W=2U AS=1.3P AD=1.3P PS=5.3U
+ PD=5.3U
M$111 \$291 B|comp[23] VDD VDD pfet_03v3 L=0.28U W=2U AS=1.3P AD=1.3P PS=5.3U
+ PD=5.3U
M$112 \$292 B|comp[21] VDD VDD pfet_03v3 L=0.28U W=2U AS=1.3P AD=0.84P PS=5.3U
+ PD=2.84U
M$113 VDD B|comp[22] \$292 VDD pfet_03v3 L=0.28U W=2U AS=0.84P AD=0.84P
+ PS=2.84U PD=2.84U
M$114 \$292 \$291 VDD VDD pfet_03v3 L=0.28U W=2U AS=0.84P AD=1.3P PS=2.84U
+ PD=5.3U
M$115 VDD \$292 out|wl[22] VDD pfet_03v3 L=0.28U W=2U AS=1.3P AD=1.3P PS=5.3U
+ PD=5.3U
M$116 \$304 B|comp[24] VDD VDD pfet_03v3 L=0.28U W=2U AS=1.3P AD=1.3P PS=5.3U
+ PD=5.3U
M$117 \$305 B|comp[22] VDD VDD pfet_03v3 L=0.28U W=2U AS=1.3P AD=0.84P PS=5.3U
+ PD=2.84U
M$118 VDD B|comp[23] \$305 VDD pfet_03v3 L=0.28U W=2U AS=0.84P AD=0.84P
+ PS=2.84U PD=2.84U
M$119 \$305 \$304 VDD VDD pfet_03v3 L=0.28U W=2U AS=0.84P AD=1.3P PS=2.84U
+ PD=5.3U
M$120 VDD \$305 out|wl[23] VDD pfet_03v3 L=0.28U W=2U AS=1.3P AD=1.3P PS=5.3U
+ PD=5.3U
M$121 \$317 B|comp[25] VDD VDD pfet_03v3 L=0.28U W=2U AS=1.3P AD=1.3P PS=5.3U
+ PD=5.3U
M$122 \$318 B|comp[23] VDD VDD pfet_03v3 L=0.28U W=2U AS=1.3P AD=0.84P PS=5.3U
+ PD=2.84U
M$123 VDD B|comp[24] \$318 VDD pfet_03v3 L=0.28U W=2U AS=0.84P AD=0.84P
+ PS=2.84U PD=2.84U
M$124 \$318 \$317 VDD VDD pfet_03v3 L=0.28U W=2U AS=0.84P AD=1.3P PS=2.84U
+ PD=5.3U
M$125 VDD \$318 out|wl[24] VDD pfet_03v3 L=0.28U W=2U AS=1.3P AD=1.3P PS=5.3U
+ PD=5.3U
M$126 \$330 B|comp[26] VDD VDD pfet_03v3 L=0.28U W=2U AS=1.3P AD=1.3P PS=5.3U
+ PD=5.3U
M$127 \$331 B|comp[24] VDD VDD pfet_03v3 L=0.28U W=2U AS=1.3P AD=0.84P PS=5.3U
+ PD=2.84U
M$128 VDD B|comp[25] \$331 VDD pfet_03v3 L=0.28U W=2U AS=0.84P AD=0.84P
+ PS=2.84U PD=2.84U
M$129 \$331 \$330 VDD VDD pfet_03v3 L=0.28U W=2U AS=0.84P AD=1.3P PS=2.84U
+ PD=5.3U
M$130 VDD \$331 out|wl[25] VDD pfet_03v3 L=0.28U W=2U AS=1.3P AD=1.3P PS=5.3U
+ PD=5.3U
M$131 \$343 B|comp[27] VDD VDD pfet_03v3 L=0.28U W=2U AS=1.3P AD=1.3P PS=5.3U
+ PD=5.3U
M$132 \$344 B|comp[25] VDD VDD pfet_03v3 L=0.28U W=2U AS=1.3P AD=0.84P PS=5.3U
+ PD=2.84U
M$133 VDD B|comp[26] \$344 VDD pfet_03v3 L=0.28U W=2U AS=0.84P AD=0.84P
+ PS=2.84U PD=2.84U
M$134 \$344 \$343 VDD VDD pfet_03v3 L=0.28U W=2U AS=0.84P AD=1.3P PS=2.84U
+ PD=5.3U
M$135 VDD \$344 out|wl[26] VDD pfet_03v3 L=0.28U W=2U AS=1.3P AD=1.3P PS=5.3U
+ PD=5.3U
M$136 \$356 B|comp[28] VDD VDD pfet_03v3 L=0.28U W=2U AS=1.3P AD=1.3P PS=5.3U
+ PD=5.3U
M$137 \$357 B|comp[26] VDD VDD pfet_03v3 L=0.28U W=2U AS=1.3P AD=0.84P PS=5.3U
+ PD=2.84U
M$138 VDD B|comp[27] \$357 VDD pfet_03v3 L=0.28U W=2U AS=0.84P AD=0.84P
+ PS=2.84U PD=2.84U
M$139 \$357 \$356 VDD VDD pfet_03v3 L=0.28U W=2U AS=0.84P AD=1.3P PS=2.84U
+ PD=5.3U
M$140 VDD \$357 out|wl[27] VDD pfet_03v3 L=0.28U W=2U AS=1.3P AD=1.3P PS=5.3U
+ PD=5.3U
M$141 \$369 B|comp[29] VDD VDD pfet_03v3 L=0.28U W=2U AS=1.3P AD=1.3P PS=5.3U
+ PD=5.3U
M$142 \$370 B|comp[27] VDD VDD pfet_03v3 L=0.28U W=2U AS=1.3P AD=0.84P PS=5.3U
+ PD=2.84U
M$143 VDD B|comp[28] \$370 VDD pfet_03v3 L=0.28U W=2U AS=0.84P AD=0.84P
+ PS=2.84U PD=2.84U
M$144 \$370 \$369 VDD VDD pfet_03v3 L=0.28U W=2U AS=0.84P AD=1.3P PS=2.84U
+ PD=5.3U
M$145 VDD \$370 out|wl[28] VDD pfet_03v3 L=0.28U W=2U AS=1.3P AD=1.3P PS=5.3U
+ PD=5.3U
M$146 \$382 B|comp[30] VDD VDD pfet_03v3 L=0.28U W=2U AS=1.3P AD=1.3P PS=5.3U
+ PD=5.3U
M$147 \$383 B|comp[28] VDD VDD pfet_03v3 L=0.28U W=2U AS=1.3P AD=0.84P PS=5.3U
+ PD=2.84U
M$148 VDD B|comp[29] \$383 VDD pfet_03v3 L=0.28U W=2U AS=0.84P AD=0.84P
+ PS=2.84U PD=2.84U
M$149 \$383 \$382 VDD VDD pfet_03v3 L=0.28U W=2U AS=0.84P AD=1.3P PS=2.84U
+ PD=5.3U
M$150 VDD \$383 out|wl[29] VDD pfet_03v3 L=0.28U W=2U AS=1.3P AD=1.3P PS=5.3U
+ PD=5.3U
M$151 \$395 B|comp[31] VDD VDD pfet_03v3 L=0.28U W=2U AS=1.3P AD=1.3P PS=5.3U
+ PD=5.3U
M$152 \$396 B|comp[29] VDD VDD pfet_03v3 L=0.28U W=2U AS=1.3P AD=0.84P PS=5.3U
+ PD=2.84U
M$153 VDD B|comp[30] \$396 VDD pfet_03v3 L=0.28U W=2U AS=0.84P AD=0.84P
+ PS=2.84U PD=2.84U
M$154 \$396 \$395 VDD VDD pfet_03v3 L=0.28U W=2U AS=0.84P AD=1.3P PS=2.84U
+ PD=5.3U
M$155 VDD \$396 out|wl[30] VDD pfet_03v3 L=0.28U W=2U AS=1.3P AD=1.3P PS=5.3U
+ PD=5.3U
M$156 \$408 B|comp[32] VDD VDD pfet_03v3 L=0.28U W=2U AS=1.3P AD=1.3P PS=5.3U
+ PD=5.3U
M$157 \$409 B|comp[30] VDD VDD pfet_03v3 L=0.28U W=2U AS=1.3P AD=0.84P PS=5.3U
+ PD=2.84U
M$158 VDD B|comp[31] \$409 VDD pfet_03v3 L=0.28U W=2U AS=0.84P AD=0.84P
+ PS=2.84U PD=2.84U
M$159 \$409 \$408 VDD VDD pfet_03v3 L=0.28U W=2U AS=0.84P AD=1.3P PS=2.84U
+ PD=5.3U
M$160 VDD \$409 out|wl[31] VDD pfet_03v3 L=0.28U W=2U AS=1.3P AD=1.3P PS=5.3U
+ PD=5.3U
M$161 \$421 B|comp[33] VDD VDD pfet_03v3 L=0.28U W=2U AS=1.3P AD=1.3P PS=5.3U
+ PD=5.3U
M$162 \$422 B|comp[31] VDD VDD pfet_03v3 L=0.28U W=2U AS=1.3P AD=0.84P PS=5.3U
+ PD=2.84U
M$163 VDD B|comp[32] \$422 VDD pfet_03v3 L=0.28U W=2U AS=0.84P AD=0.84P
+ PS=2.84U PD=2.84U
M$164 \$422 \$421 VDD VDD pfet_03v3 L=0.28U W=2U AS=0.84P AD=1.3P PS=2.84U
+ PD=5.3U
M$165 VDD \$422 out|wl[32] VDD pfet_03v3 L=0.28U W=2U AS=1.3P AD=1.3P PS=5.3U
+ PD=5.3U
M$166 \$434 B|comp[34] VDD VDD pfet_03v3 L=0.28U W=2U AS=1.3P AD=1.3P PS=5.3U
+ PD=5.3U
M$167 \$435 B|comp[32] VDD VDD pfet_03v3 L=0.28U W=2U AS=1.3P AD=0.84P PS=5.3U
+ PD=2.84U
M$168 VDD B|comp[33] \$435 VDD pfet_03v3 L=0.28U W=2U AS=0.84P AD=0.84P
+ PS=2.84U PD=2.84U
M$169 \$435 \$434 VDD VDD pfet_03v3 L=0.28U W=2U AS=0.84P AD=1.3P PS=2.84U
+ PD=5.3U
M$170 VDD \$435 out|wl[33] VDD pfet_03v3 L=0.28U W=2U AS=1.3P AD=1.3P PS=5.3U
+ PD=5.3U
M$171 \$447 B|comp[35] VDD VDD pfet_03v3 L=0.28U W=2U AS=1.3P AD=1.3P PS=5.3U
+ PD=5.3U
M$172 \$448 B|comp[33] VDD VDD pfet_03v3 L=0.28U W=2U AS=1.3P AD=0.84P PS=5.3U
+ PD=2.84U
M$173 VDD B|comp[34] \$448 VDD pfet_03v3 L=0.28U W=2U AS=0.84P AD=0.84P
+ PS=2.84U PD=2.84U
M$174 \$448 \$447 VDD VDD pfet_03v3 L=0.28U W=2U AS=0.84P AD=1.3P PS=2.84U
+ PD=5.3U
M$175 VDD \$448 out|wl[34] VDD pfet_03v3 L=0.28U W=2U AS=1.3P AD=1.3P PS=5.3U
+ PD=5.3U
M$176 \$460 B|comp[36] VDD VDD pfet_03v3 L=0.28U W=2U AS=1.3P AD=1.3P PS=5.3U
+ PD=5.3U
M$177 \$461 B|comp[34] VDD VDD pfet_03v3 L=0.28U W=2U AS=1.3P AD=0.84P PS=5.3U
+ PD=2.84U
M$178 VDD B|comp[35] \$461 VDD pfet_03v3 L=0.28U W=2U AS=0.84P AD=0.84P
+ PS=2.84U PD=2.84U
M$179 \$461 \$460 VDD VDD pfet_03v3 L=0.28U W=2U AS=0.84P AD=1.3P PS=2.84U
+ PD=5.3U
M$180 VDD \$461 out|wl[35] VDD pfet_03v3 L=0.28U W=2U AS=1.3P AD=1.3P PS=5.3U
+ PD=5.3U
M$181 \$473 B|comp[37] VDD VDD pfet_03v3 L=0.28U W=2U AS=1.3P AD=1.3P PS=5.3U
+ PD=5.3U
M$182 \$474 B|comp[35] VDD VDD pfet_03v3 L=0.28U W=2U AS=1.3P AD=0.84P PS=5.3U
+ PD=2.84U
M$183 VDD B|comp[36] \$474 VDD pfet_03v3 L=0.28U W=2U AS=0.84P AD=0.84P
+ PS=2.84U PD=2.84U
M$184 \$474 \$473 VDD VDD pfet_03v3 L=0.28U W=2U AS=0.84P AD=1.3P PS=2.84U
+ PD=5.3U
M$185 VDD \$474 out|wl[36] VDD pfet_03v3 L=0.28U W=2U AS=1.3P AD=1.3P PS=5.3U
+ PD=5.3U
M$186 \$486 B|comp[38] VDD VDD pfet_03v3 L=0.28U W=2U AS=1.3P AD=1.3P PS=5.3U
+ PD=5.3U
M$187 \$487 B|comp[36] VDD VDD pfet_03v3 L=0.28U W=2U AS=1.3P AD=0.84P PS=5.3U
+ PD=2.84U
M$188 VDD B|comp[37] \$487 VDD pfet_03v3 L=0.28U W=2U AS=0.84P AD=0.84P
+ PS=2.84U PD=2.84U
M$189 \$487 \$486 VDD VDD pfet_03v3 L=0.28U W=2U AS=0.84P AD=1.3P PS=2.84U
+ PD=5.3U
M$190 VDD \$487 out|wl[37] VDD pfet_03v3 L=0.28U W=2U AS=1.3P AD=1.3P PS=5.3U
+ PD=5.3U
M$191 \$499 B|comp[39] VDD VDD pfet_03v3 L=0.28U W=2U AS=1.3P AD=1.3P PS=5.3U
+ PD=5.3U
M$192 \$500 B|comp[37] VDD VDD pfet_03v3 L=0.28U W=2U AS=1.3P AD=0.84P PS=5.3U
+ PD=2.84U
M$193 VDD B|comp[38] \$500 VDD pfet_03v3 L=0.28U W=2U AS=0.84P AD=0.84P
+ PS=2.84U PD=2.84U
M$194 \$500 \$499 VDD VDD pfet_03v3 L=0.28U W=2U AS=0.84P AD=1.3P PS=2.84U
+ PD=5.3U
M$195 VDD \$500 out|wl[38] VDD pfet_03v3 L=0.28U W=2U AS=1.3P AD=1.3P PS=5.3U
+ PD=5.3U
M$196 \$512 B|comp[40] VDD VDD pfet_03v3 L=0.28U W=2U AS=1.3P AD=1.3P PS=5.3U
+ PD=5.3U
M$197 \$513 B|comp[38] VDD VDD pfet_03v3 L=0.28U W=2U AS=1.3P AD=0.84P PS=5.3U
+ PD=2.84U
M$198 VDD B|comp[39] \$513 VDD pfet_03v3 L=0.28U W=2U AS=0.84P AD=0.84P
+ PS=2.84U PD=2.84U
M$199 \$513 \$512 VDD VDD pfet_03v3 L=0.28U W=2U AS=0.84P AD=1.3P PS=2.84U
+ PD=5.3U
M$200 VDD \$513 out|wl[39] VDD pfet_03v3 L=0.28U W=2U AS=1.3P AD=1.3P PS=5.3U
+ PD=5.3U
M$201 \$525 B|comp[41] VDD VDD pfet_03v3 L=0.28U W=2U AS=1.3P AD=1.3P PS=5.3U
+ PD=5.3U
M$202 \$526 B|comp[39] VDD VDD pfet_03v3 L=0.28U W=2U AS=1.3P AD=0.84P PS=5.3U
+ PD=2.84U
M$203 VDD B|comp[40] \$526 VDD pfet_03v3 L=0.28U W=2U AS=0.84P AD=0.84P
+ PS=2.84U PD=2.84U
M$204 \$526 \$525 VDD VDD pfet_03v3 L=0.28U W=2U AS=0.84P AD=1.3P PS=2.84U
+ PD=5.3U
M$205 VDD \$526 out|wl[40] VDD pfet_03v3 L=0.28U W=2U AS=1.3P AD=1.3P PS=5.3U
+ PD=5.3U
M$206 \$538 B|comp[42] VDD VDD pfet_03v3 L=0.28U W=2U AS=1.3P AD=1.3P PS=5.3U
+ PD=5.3U
M$207 \$539 B|comp[40] VDD VDD pfet_03v3 L=0.28U W=2U AS=1.3P AD=0.84P PS=5.3U
+ PD=2.84U
M$208 VDD B|comp[41] \$539 VDD pfet_03v3 L=0.28U W=2U AS=0.84P AD=0.84P
+ PS=2.84U PD=2.84U
M$209 \$539 \$538 VDD VDD pfet_03v3 L=0.28U W=2U AS=0.84P AD=1.3P PS=2.84U
+ PD=5.3U
M$210 VDD \$539 out|wl[41] VDD pfet_03v3 L=0.28U W=2U AS=1.3P AD=1.3P PS=5.3U
+ PD=5.3U
M$211 \$551 B|comp[43] VDD VDD pfet_03v3 L=0.28U W=2U AS=1.3P AD=1.3P PS=5.3U
+ PD=5.3U
M$212 \$552 B|comp[41] VDD VDD pfet_03v3 L=0.28U W=2U AS=1.3P AD=0.84P PS=5.3U
+ PD=2.84U
M$213 VDD B|comp[42] \$552 VDD pfet_03v3 L=0.28U W=2U AS=0.84P AD=0.84P
+ PS=2.84U PD=2.84U
M$214 \$552 \$551 VDD VDD pfet_03v3 L=0.28U W=2U AS=0.84P AD=1.3P PS=2.84U
+ PD=5.3U
M$215 VDD \$552 out|wl[42] VDD pfet_03v3 L=0.28U W=2U AS=1.3P AD=1.3P PS=5.3U
+ PD=5.3U
M$216 \$564 B|comp[44] VDD VDD pfet_03v3 L=0.28U W=2U AS=1.3P AD=1.3P PS=5.3U
+ PD=5.3U
M$217 \$565 B|comp[42] VDD VDD pfet_03v3 L=0.28U W=2U AS=1.3P AD=0.84P PS=5.3U
+ PD=2.84U
M$218 VDD B|comp[43] \$565 VDD pfet_03v3 L=0.28U W=2U AS=0.84P AD=0.84P
+ PS=2.84U PD=2.84U
M$219 \$565 \$564 VDD VDD pfet_03v3 L=0.28U W=2U AS=0.84P AD=1.3P PS=2.84U
+ PD=5.3U
M$220 VDD \$565 out|wl[43] VDD pfet_03v3 L=0.28U W=2U AS=1.3P AD=1.3P PS=5.3U
+ PD=5.3U
M$221 \$577 B|comp[45] VDD VDD pfet_03v3 L=0.28U W=2U AS=1.3P AD=1.3P PS=5.3U
+ PD=5.3U
M$222 \$578 B|comp[43] VDD VDD pfet_03v3 L=0.28U W=2U AS=1.3P AD=0.84P PS=5.3U
+ PD=2.84U
M$223 VDD B|comp[44] \$578 VDD pfet_03v3 L=0.28U W=2U AS=0.84P AD=0.84P
+ PS=2.84U PD=2.84U
M$224 \$578 \$577 VDD VDD pfet_03v3 L=0.28U W=2U AS=0.84P AD=1.3P PS=2.84U
+ PD=5.3U
M$225 VDD \$578 out|wl[44] VDD pfet_03v3 L=0.28U W=2U AS=1.3P AD=1.3P PS=5.3U
+ PD=5.3U
M$226 \$590 B|comp[46] VDD VDD pfet_03v3 L=0.28U W=2U AS=1.3P AD=1.3P PS=5.3U
+ PD=5.3U
M$227 \$591 B|comp[44] VDD VDD pfet_03v3 L=0.28U W=2U AS=1.3P AD=0.84P PS=5.3U
+ PD=2.84U
M$228 VDD B|comp[45] \$591 VDD pfet_03v3 L=0.28U W=2U AS=0.84P AD=0.84P
+ PS=2.84U PD=2.84U
M$229 \$591 \$590 VDD VDD pfet_03v3 L=0.28U W=2U AS=0.84P AD=1.3P PS=2.84U
+ PD=5.3U
M$230 VDD \$591 out|wl[45] VDD pfet_03v3 L=0.28U W=2U AS=1.3P AD=1.3P PS=5.3U
+ PD=5.3U
M$231 \$603 B|comp[47] VDD VDD pfet_03v3 L=0.28U W=2U AS=1.3P AD=1.3P PS=5.3U
+ PD=5.3U
M$232 \$604 B|comp[45] VDD VDD pfet_03v3 L=0.28U W=2U AS=1.3P AD=0.84P PS=5.3U
+ PD=2.84U
M$233 VDD B|comp[46] \$604 VDD pfet_03v3 L=0.28U W=2U AS=0.84P AD=0.84P
+ PS=2.84U PD=2.84U
M$234 \$604 \$603 VDD VDD pfet_03v3 L=0.28U W=2U AS=0.84P AD=1.3P PS=2.84U
+ PD=5.3U
M$235 VDD \$604 out|wl[46] VDD pfet_03v3 L=0.28U W=2U AS=1.3P AD=1.3P PS=5.3U
+ PD=5.3U
M$236 \$616 B|comp[48] VDD VDD pfet_03v3 L=0.28U W=2U AS=1.3P AD=1.3P PS=5.3U
+ PD=5.3U
M$237 \$617 B|comp[46] VDD VDD pfet_03v3 L=0.28U W=2U AS=1.3P AD=0.84P PS=5.3U
+ PD=2.84U
M$238 VDD B|comp[47] \$617 VDD pfet_03v3 L=0.28U W=2U AS=0.84P AD=0.84P
+ PS=2.84U PD=2.84U
M$239 \$617 \$616 VDD VDD pfet_03v3 L=0.28U W=2U AS=0.84P AD=1.3P PS=2.84U
+ PD=5.3U
M$240 VDD \$617 out|wl[47] VDD pfet_03v3 L=0.28U W=2U AS=1.3P AD=1.3P PS=5.3U
+ PD=5.3U
M$241 \$629 B|comp[49] VDD VDD pfet_03v3 L=0.28U W=2U AS=1.3P AD=1.3P PS=5.3U
+ PD=5.3U
M$242 \$630 B|comp[47] VDD VDD pfet_03v3 L=0.28U W=2U AS=1.3P AD=0.84P PS=5.3U
+ PD=2.84U
M$243 VDD B|comp[48] \$630 VDD pfet_03v3 L=0.28U W=2U AS=0.84P AD=0.84P
+ PS=2.84U PD=2.84U
M$244 \$630 \$629 VDD VDD pfet_03v3 L=0.28U W=2U AS=0.84P AD=1.3P PS=2.84U
+ PD=5.3U
M$245 VDD \$630 out|wl[48] VDD pfet_03v3 L=0.28U W=2U AS=1.3P AD=1.3P PS=5.3U
+ PD=5.3U
M$246 \$642 B|comp[50] VDD VDD pfet_03v3 L=0.28U W=2U AS=1.3P AD=1.3P PS=5.3U
+ PD=5.3U
M$247 \$643 B|comp[48] VDD VDD pfet_03v3 L=0.28U W=2U AS=1.3P AD=0.84P PS=5.3U
+ PD=2.84U
M$248 VDD B|comp[49] \$643 VDD pfet_03v3 L=0.28U W=2U AS=0.84P AD=0.84P
+ PS=2.84U PD=2.84U
M$249 \$643 \$642 VDD VDD pfet_03v3 L=0.28U W=2U AS=0.84P AD=1.3P PS=2.84U
+ PD=5.3U
M$250 VDD \$643 out|wl[49] VDD pfet_03v3 L=0.28U W=2U AS=1.3P AD=1.3P PS=5.3U
+ PD=5.3U
M$251 \$655 B|comp[51] VDD VDD pfet_03v3 L=0.28U W=2U AS=1.3P AD=1.3P PS=5.3U
+ PD=5.3U
M$252 \$656 B|comp[49] VDD VDD pfet_03v3 L=0.28U W=2U AS=1.3P AD=0.84P PS=5.3U
+ PD=2.84U
M$253 VDD B|comp[50] \$656 VDD pfet_03v3 L=0.28U W=2U AS=0.84P AD=0.84P
+ PS=2.84U PD=2.84U
M$254 \$656 \$655 VDD VDD pfet_03v3 L=0.28U W=2U AS=0.84P AD=1.3P PS=2.84U
+ PD=5.3U
M$255 VDD \$656 out|wl[50] VDD pfet_03v3 L=0.28U W=2U AS=1.3P AD=1.3P PS=5.3U
+ PD=5.3U
M$256 \$668 B|comp[52] VDD VDD pfet_03v3 L=0.28U W=2U AS=1.3P AD=1.3P PS=5.3U
+ PD=5.3U
M$257 \$669 B|comp[50] VDD VDD pfet_03v3 L=0.28U W=2U AS=1.3P AD=0.84P PS=5.3U
+ PD=2.84U
M$258 VDD B|comp[51] \$669 VDD pfet_03v3 L=0.28U W=2U AS=0.84P AD=0.84P
+ PS=2.84U PD=2.84U
M$259 \$669 \$668 VDD VDD pfet_03v3 L=0.28U W=2U AS=0.84P AD=1.3P PS=2.84U
+ PD=5.3U
M$260 VDD \$669 out|wl[51] VDD pfet_03v3 L=0.28U W=2U AS=1.3P AD=1.3P PS=5.3U
+ PD=5.3U
M$261 \$681 B|comp[53] VDD VDD pfet_03v3 L=0.28U W=2U AS=1.3P AD=1.3P PS=5.3U
+ PD=5.3U
M$262 \$682 B|comp[51] VDD VDD pfet_03v3 L=0.28U W=2U AS=1.3P AD=0.84P PS=5.3U
+ PD=2.84U
M$263 VDD B|comp[52] \$682 VDD pfet_03v3 L=0.28U W=2U AS=0.84P AD=0.84P
+ PS=2.84U PD=2.84U
M$264 \$682 \$681 VDD VDD pfet_03v3 L=0.28U W=2U AS=0.84P AD=1.3P PS=2.84U
+ PD=5.3U
M$265 VDD \$682 out|wl[52] VDD pfet_03v3 L=0.28U W=2U AS=1.3P AD=1.3P PS=5.3U
+ PD=5.3U
M$266 \$694 B|comp[54] VDD VDD pfet_03v3 L=0.28U W=2U AS=1.3P AD=1.3P PS=5.3U
+ PD=5.3U
M$267 \$695 B|comp[52] VDD VDD pfet_03v3 L=0.28U W=2U AS=1.3P AD=0.84P PS=5.3U
+ PD=2.84U
M$268 VDD B|comp[53] \$695 VDD pfet_03v3 L=0.28U W=2U AS=0.84P AD=0.84P
+ PS=2.84U PD=2.84U
M$269 \$695 \$694 VDD VDD pfet_03v3 L=0.28U W=2U AS=0.84P AD=1.3P PS=2.84U
+ PD=5.3U
M$270 VDD \$695 out|wl[53] VDD pfet_03v3 L=0.28U W=2U AS=1.3P AD=1.3P PS=5.3U
+ PD=5.3U
M$271 \$707 B|comp[55] VDD VDD pfet_03v3 L=0.28U W=2U AS=1.3P AD=1.3P PS=5.3U
+ PD=5.3U
M$272 \$708 B|comp[53] VDD VDD pfet_03v3 L=0.28U W=2U AS=1.3P AD=0.84P PS=5.3U
+ PD=2.84U
M$273 VDD B|comp[54] \$708 VDD pfet_03v3 L=0.28U W=2U AS=0.84P AD=0.84P
+ PS=2.84U PD=2.84U
M$274 \$708 \$707 VDD VDD pfet_03v3 L=0.28U W=2U AS=0.84P AD=1.3P PS=2.84U
+ PD=5.3U
M$275 VDD \$708 out|wl[54] VDD pfet_03v3 L=0.28U W=2U AS=1.3P AD=1.3P PS=5.3U
+ PD=5.3U
M$276 \$720 B|comp[56] VDD VDD pfet_03v3 L=0.28U W=2U AS=1.3P AD=1.3P PS=5.3U
+ PD=5.3U
M$277 \$721 B|comp[54] VDD VDD pfet_03v3 L=0.28U W=2U AS=1.3P AD=0.84P PS=5.3U
+ PD=2.84U
M$278 VDD B|comp[55] \$721 VDD pfet_03v3 L=0.28U W=2U AS=0.84P AD=0.84P
+ PS=2.84U PD=2.84U
M$279 \$721 \$720 VDD VDD pfet_03v3 L=0.28U W=2U AS=0.84P AD=1.3P PS=2.84U
+ PD=5.3U
M$280 VDD \$721 out|wl[55] VDD pfet_03v3 L=0.28U W=2U AS=1.3P AD=1.3P PS=5.3U
+ PD=5.3U
M$281 \$733 B|comp[57] VDD VDD pfet_03v3 L=0.28U W=2U AS=1.3P AD=1.3P PS=5.3U
+ PD=5.3U
M$282 \$734 B|comp[55] VDD VDD pfet_03v3 L=0.28U W=2U AS=1.3P AD=0.84P PS=5.3U
+ PD=2.84U
M$283 VDD B|comp[56] \$734 VDD pfet_03v3 L=0.28U W=2U AS=0.84P AD=0.84P
+ PS=2.84U PD=2.84U
M$284 \$734 \$733 VDD VDD pfet_03v3 L=0.28U W=2U AS=0.84P AD=1.3P PS=2.84U
+ PD=5.3U
M$285 VDD \$734 out|wl[56] VDD pfet_03v3 L=0.28U W=2U AS=1.3P AD=1.3P PS=5.3U
+ PD=5.3U
M$286 \$746 B|comp[58] VDD VDD pfet_03v3 L=0.28U W=2U AS=1.3P AD=1.3P PS=5.3U
+ PD=5.3U
M$287 \$747 B|comp[56] VDD VDD pfet_03v3 L=0.28U W=2U AS=1.3P AD=0.84P PS=5.3U
+ PD=2.84U
M$288 VDD B|comp[57] \$747 VDD pfet_03v3 L=0.28U W=2U AS=0.84P AD=0.84P
+ PS=2.84U PD=2.84U
M$289 \$747 \$746 VDD VDD pfet_03v3 L=0.28U W=2U AS=0.84P AD=1.3P PS=2.84U
+ PD=5.3U
M$290 VDD \$747 out|wl[57] VDD pfet_03v3 L=0.28U W=2U AS=1.3P AD=1.3P PS=5.3U
+ PD=5.3U
M$291 \$759 B|comp[59] VDD VDD pfet_03v3 L=0.28U W=2U AS=1.3P AD=1.3P PS=5.3U
+ PD=5.3U
M$292 \$760 B|comp[57] VDD VDD pfet_03v3 L=0.28U W=2U AS=1.3P AD=0.84P PS=5.3U
+ PD=2.84U
M$293 VDD B|comp[58] \$760 VDD pfet_03v3 L=0.28U W=2U AS=0.84P AD=0.84P
+ PS=2.84U PD=2.84U
M$294 \$760 \$759 VDD VDD pfet_03v3 L=0.28U W=2U AS=0.84P AD=1.3P PS=2.84U
+ PD=5.3U
M$295 VDD \$760 out|wl[58] VDD pfet_03v3 L=0.28U W=2U AS=1.3P AD=1.3P PS=5.3U
+ PD=5.3U
M$296 \$772 B|comp[60] VDD VDD pfet_03v3 L=0.28U W=2U AS=1.3P AD=1.3P PS=5.3U
+ PD=5.3U
M$297 \$773 B|comp[58] VDD VDD pfet_03v3 L=0.28U W=2U AS=1.3P AD=0.84P PS=5.3U
+ PD=2.84U
M$298 VDD B|comp[59] \$773 VDD pfet_03v3 L=0.28U W=2U AS=0.84P AD=0.84P
+ PS=2.84U PD=2.84U
M$299 \$773 \$772 VDD VDD pfet_03v3 L=0.28U W=2U AS=0.84P AD=1.3P PS=2.84U
+ PD=5.3U
M$300 VDD \$773 out|wl[59] VDD pfet_03v3 L=0.28U W=2U AS=1.3P AD=1.3P PS=5.3U
+ PD=5.3U
M$301 \$785 B|comp[61] VDD VDD pfet_03v3 L=0.28U W=2U AS=1.3P AD=1.3P PS=5.3U
+ PD=5.3U
M$302 \$786 B|comp[59] VDD VDD pfet_03v3 L=0.28U W=2U AS=1.3P AD=0.84P PS=5.3U
+ PD=2.84U
M$303 VDD B|comp[60] \$786 VDD pfet_03v3 L=0.28U W=2U AS=0.84P AD=0.84P
+ PS=2.84U PD=2.84U
M$304 \$786 \$785 VDD VDD pfet_03v3 L=0.28U W=2U AS=0.84P AD=1.3P PS=2.84U
+ PD=5.3U
M$305 VDD \$786 out|wl[60] VDD pfet_03v3 L=0.28U W=2U AS=1.3P AD=1.3P PS=5.3U
+ PD=5.3U
M$306 \$798 B|comp[62] VDD VDD pfet_03v3 L=0.28U W=2U AS=1.3P AD=1.3P PS=5.3U
+ PD=5.3U
M$307 \$799 B|comp[60] VDD VDD pfet_03v3 L=0.28U W=2U AS=1.3P AD=0.84P PS=5.3U
+ PD=2.84U
M$308 VDD B|comp[61] \$799 VDD pfet_03v3 L=0.28U W=2U AS=0.84P AD=0.84P
+ PS=2.84U PD=2.84U
M$309 \$799 \$798 VDD VDD pfet_03v3 L=0.28U W=2U AS=0.84P AD=1.3P PS=2.84U
+ PD=5.3U
M$310 VDD \$799 out|wl[61] VDD pfet_03v3 L=0.28U W=2U AS=1.3P AD=1.3P PS=5.3U
+ PD=5.3U
M$311 \$811 GND VDD VDD pfet_03v3 L=0.28U W=2U AS=1.3P AD=1.3P PS=5.3U PD=5.3U
M$312 \$812 B|comp[61] VDD VDD pfet_03v3 L=0.28U W=2U AS=1.3P AD=0.84P PS=5.3U
+ PD=2.84U
M$313 VDD B|comp[62] \$812 VDD pfet_03v3 L=0.28U W=2U AS=0.84P AD=0.84P
+ PS=2.84U PD=2.84U
M$314 \$812 \$811 VDD VDD pfet_03v3 L=0.28U W=2U AS=0.84P AD=1.3P PS=2.84U
+ PD=5.3U
M$315 VDD \$812 out|wl[62] VDD pfet_03v3 L=0.28U W=2U AS=1.3P AD=1.3P PS=5.3U
+ PD=5.3U
M$316 \$2 B|comp[1] GND GND nfet_03v3 L=0.28U W=1U AS=0.61P AD=0.61P PS=3.22U
+ PD=3.22U
M$317 \$4 VDD \$3 GND nfet_03v3 L=0.28U W=1U AS=0.61P AD=0.4P PS=3.22U PD=1.8U
M$318 \$5 B|comp[0] \$4 GND nfet_03v3 L=0.28U W=1U AS=0.4P AD=0.4P PS=1.8U
+ PD=1.8U
M$319 GND \$2 \$5 GND nfet_03v3 L=0.28U W=1U AS=0.4P AD=0.61P PS=1.8U PD=3.22U
M$320 GND \$3 out|wl[0] GND nfet_03v3 L=0.28U W=1U AS=0.61P AD=0.61P PS=3.22U
+ PD=3.22U
M$321 \$18 B|comp[2] GND GND nfet_03v3 L=0.28U W=1U AS=0.61P AD=0.61P PS=3.22U
+ PD=3.22U
M$322 \$26 B|comp[0] \$19 GND nfet_03v3 L=0.28U W=1U AS=0.61P AD=0.4P PS=3.22U
+ PD=1.8U
M$323 \$27 B|comp[1] \$26 GND nfet_03v3 L=0.28U W=1U AS=0.4P AD=0.4P PS=1.8U
+ PD=1.8U
M$324 GND \$18 \$27 GND nfet_03v3 L=0.28U W=1U AS=0.4P AD=0.61P PS=1.8U PD=3.22U