* Extracted by KLayout with GF180MCU LVS runset on : 13/07/2026 23:49

* cell rom2
* pin B0
* pin B1
* pin B2
* pin B3
* pin B4
* pin GND
* pin IN0
* pin IN1
* pin IN10
* pin IN11
* pin IN12
* pin IN13
* pin IN14
* pin IN15
* pin IN16
* pin IN17
* pin IN18
* pin IN19
* pin IN2
* pin IN20
* pin IN21
* pin IN22
* pin IN23
* pin IN24
* pin IN25
* pin IN26
* pin IN27
* pin IN28
* pin IN29
* pin IN3
* pin IN30
* pin IN32
* pin IN33
* pin IN34
* pin IN35
* pin IN36
* pin IN37
* pin IN38
* pin IN39
* pin IN4
* pin IN40
* pin IN41
* pin IN42
* pin IN43
* pin IN44
* pin IN45
* pin IN46
* pin IN47
* pin IN48
* pin IN49
* pin IN5
* pin IN50
* pin IN51
* pin IN52
* pin IN53
* pin IN54
* pin IN55
* pin IN56
* pin IN57
* pin IN58
* pin IN59
* pin IN6
* pin IN60
* pin IN61
* pin IN62
* pin IN7
* pin IN8
* pin IN9
* pin THERMOMETER_31
* pin VDD
.SUBCKT rom2 B0 B1 B2 B3 B4 GND IN0 IN1 IN10 IN11 IN12 IN13 IN14 IN15 IN16 IN17
+ IN18 IN19 IN2 IN20 IN21 IN22 IN23 IN24 IN25 IN26 IN27 IN28 IN29 IN3 IN30 IN32
+ IN33 IN34 IN35 IN36 IN37 IN38 IN39 IN4 IN40 IN41 IN42 IN43 IN44 IN45 IN46
+ IN47 IN48 IN49 IN5 IN50 IN51 IN52 IN53 IN54 IN55 IN56 IN57 IN58 IN59 IN6 IN60
+ IN61 IN62 IN7 IN8 IN9 THERMOMETER_31 VDD
* device instance $1 r0 *1 61.15,63.98 pfet_03v3
M$1 VDD VDD VDD VDD pfet_03v3 L=0.28U W=1.32U AS=0.5148P AD=0.5148P PS=4.1U
+ PD=4.1U
* device instance $4 r0 *1 61.14,68.24 nfet_03v3
M$4 GND GND GND GND nfet_03v3 L=0.28U W=0.44U AS=0.2684P AD=0.2684P PS=2.1U
+ PD=2.1U
* device instance $5 r0 *1 60.73,82.5 nfet_03v3
M$5 \$I2596 \$I2595 \$I2597 GND nfet_03v3 L=0.28U W=0.44U AS=0.2684P AD=0.2684P
+ PS=2.1U PD=2.1U
* device instance $6 m90 *1 77.45,82.5 nfet_03v3
M$6 \$I2600 \$I2599 \$I2601 GND nfet_03v3 L=0.28U W=0.44U AS=0.2684P AD=0.2684P
+ PS=2.1U PD=2.1U
* device instance $7 m90 *1 72.71,82.5 nfet_03v3
M$7 \$I2604 \$I2603 \$I2605 GND nfet_03v3 L=0.28U W=0.44U AS=0.2684P AD=0.2684P
+ PS=2.1U PD=2.1U
* device instance $8 m90 *1 63.23,82.5 nfet_03v3
M$8 \$I2608 \$I2607 \$I2609 GND nfet_03v3 L=0.28U W=0.44U AS=0.2684P AD=0.2684P
+ PS=2.1U PD=2.1U
* device instance $9 m90 *1 86.93,82.5 nfet_03v3
M$9 \$I2612 \$I2611 \$I2613 GND nfet_03v3 L=0.28U W=0.44U AS=0.2684P AD=0.2684P
+ PS=2.1U PD=2.1U
* device instance $10 m90 *1 67.97,82.5 nfet_03v3
M$10 \$I2616 \$I2615 \$I2617 GND nfet_03v3 L=0.28U W=0.44U AS=0.2684P
+ AD=0.2684P PS=2.1U PD=2.1U
* device instance $11 m90 *1 82.19,82.5 nfet_03v3
M$11 \$I2620 \$I2619 \$I2621 GND nfet_03v3 L=0.28U W=0.44U AS=0.2684P
+ AD=0.2684P PS=2.1U PD=2.1U
* device instance $12 r0 *1 79.69,82.5 nfet_03v3
M$12 \$I2624 \$I2623 \$I2625 GND nfet_03v3 L=0.28U W=0.44U AS=0.2684P
+ AD=0.2684P PS=2.1U PD=2.1U
* device instance $13 r0 *1 70.21,82.5 nfet_03v3
M$13 \$I2628 \$I2627 \$I2629 GND nfet_03v3 L=0.28U W=0.44U AS=0.2684P
+ AD=0.2684P PS=2.1U PD=2.1U
* device instance $14 r0 *1 74.95,82.5 nfet_03v3
M$14 \$I2632 \$I2631 \$I2633 GND nfet_03v3 L=0.28U W=0.44U AS=0.2684P
+ AD=0.2684P PS=2.1U PD=2.1U
* device instance $15 r0 *1 65.47,82.5 nfet_03v3
M$15 \$I2636 \$I2635 \$I2637 GND nfet_03v3 L=0.28U W=0.44U AS=0.2684P
+ AD=0.2684P PS=2.1U PD=2.1U
* device instance $16 r0 *1 84.43,82.5 nfet_03v3
M$16 \$I2640 \$I2639 \$I2641 GND nfet_03v3 L=0.28U W=0.44U AS=0.2684P
+ AD=0.2684P PS=2.1U PD=2.1U
* device instance $17 r0 *1 70.21,107.1 nfet_03v3
M$17 \$I2644 \$I2643 \$I2645 GND nfet_03v3 L=0.28U W=0.44U AS=0.2684P
+ AD=0.2684P PS=2.1U PD=2.1U
* device instance $18 r0 *1 70.21,102.18 nfet_03v3
M$18 \$I2647 \$I2646 \$I2648 GND nfet_03v3 L=0.28U W=0.44U AS=0.2684P
+ AD=0.2684P PS=2.1U PD=2.1U
* device instance $19 r0 *1 70.21,95.62 nfet_03v3
M$19 \$I2650 \$I2649 \$I2651 GND nfet_03v3 L=0.28U W=0.44U AS=0.2684P
+ AD=0.2684P PS=2.1U PD=2.1U
* device instance $20 r0 *1 70.21,87.42 nfet_03v3
M$20 \$I2653 \$I2652 \$I2654 GND nfet_03v3 L=0.28U W=0.44U AS=0.2684P
+ AD=0.2684P PS=2.1U PD=2.1U
* device instance $21 r0 *1 70.21,89.06 nfet_03v3
M$21 \$I2656 \$I2655 \$I2657 GND nfet_03v3 L=0.28U W=0.44U AS=0.2684P
+ AD=0.2684P PS=2.1U PD=2.1U
* device instance $22 r0 *1 70.21,93.98 nfet_03v3
M$22 \$I2659 \$I2658 \$I2660 GND nfet_03v3 L=0.28U W=0.44U AS=0.2684P
+ AD=0.2684P PS=2.1U PD=2.1U
* device instance $23 r0 *1 70.21,100.54 nfet_03v3
M$23 \$I2662 \$I2661 \$I2663 GND nfet_03v3 L=0.28U W=0.44U AS=0.2684P
+ AD=0.2684P PS=2.1U PD=2.1U
* device instance $24 r0 *1 70.21,113.66 nfet_03v3
M$24 \$I2665 \$I2664 \$I2666 GND nfet_03v3 L=0.28U W=0.44U AS=0.2684P
+ AD=0.2684P PS=2.1U PD=2.1U
* device instance $25 r0 *1 70.21,115.3 nfet_03v3
M$25 \$I2668 \$I2667 \$I2669 GND nfet_03v3 L=0.28U W=0.44U AS=0.2684P
+ AD=0.2684P PS=2.1U PD=2.1U
* device instance $26 r0 *1 70.21,133.34 nfet_03v3
M$26 \$I2671 \$I2670 \$I2672 GND nfet_03v3 L=0.28U W=0.44U AS=0.2684P
+ AD=0.2684P PS=2.1U PD=2.1U
* device instance $27 r0 *1 70.21,128.42 nfet_03v3
M$27 \$I2674 \$I2673 \$I2675 GND nfet_03v3 L=0.28U W=0.44U AS=0.2684P
+ AD=0.2684P PS=2.1U PD=2.1U
* device instance $28 r0 *1 70.21,126.78 nfet_03v3
M$28 \$I2677 \$I2676 \$I2678 GND nfet_03v3 L=0.28U W=0.44U AS=0.2684P
+ AD=0.2684P PS=2.1U PD=2.1U
* device instance $29 r0 *1 70.21,121.86 nfet_03v3
M$29 \$I2680 \$I2679 \$I2681 GND nfet_03v3 L=0.28U W=0.44U AS=0.2684P
+ AD=0.2684P PS=2.1U PD=2.1U
* device instance $30 r0 *1 70.21,120.22 nfet_03v3
M$30 \$I2683 \$I2682 \$I2684 GND nfet_03v3 L=0.28U W=0.44U AS=0.2684P
+ AD=0.2684P PS=2.1U PD=2.1U
* device instance $31 r0 *1 70.21,108.74 nfet_03v3
M$31 \$I2686 \$I2685 \$I2687 GND nfet_03v3 L=0.28U W=0.44U AS=0.2684P
+ AD=0.2684P PS=2.1U PD=2.1U
* device instance $32 m90 *1 82.19,133.34 nfet_03v3
M$32 \$I2689 \$I2688 \$I2690 GND nfet_03v3 L=0.28U W=0.44U AS=0.2684P
+ AD=0.2684P PS=2.1U PD=2.1U
* device instance $33 m90 *1 82.19,121.86 nfet_03v3
M$33 \$I2692 \$I2691 \$I2693 GND nfet_03v3 L=0.28U W=0.44U AS=0.2684P
+ AD=0.2684P PS=2.1U PD=2.1U
* device instance $34 m90 *1 82.19,100.54 nfet_03v3
M$34 \$I2695 \$I2694 \$I2696 GND nfet_03v3 L=0.28U W=0.44U AS=0.2684P
+ AD=0.2684P PS=2.1U PD=2.1U
* device instance $35 m90 *1 82.19,126.78 nfet_03v3
M$35 \$I2698 \$I2697 \$I2699 GND nfet_03v3 L=0.28U W=0.44U AS=0.2684P
+ AD=0.2684P PS=2.1U PD=2.1U
* device instance $36 m90 *1 82.19,128.42 nfet_03v3
M$36 \$I2701 \$I2700 \$I2702 GND nfet_03v3 L=0.28U W=0.44U AS=0.2684P
+ AD=0.2684P PS=2.1U PD=2.1U
* device instance $37 m90 *1 82.19,107.1 nfet_03v3
M$37 \$I2704 \$I2703 \$I2705 GND nfet_03v3 L=0.28U W=0.44U AS=0.2684P
+ AD=0.2684P PS=2.1U PD=2.1U
* device instance $38 m90 *1 82.19,89.06 nfet_03v3
M$38 \$I2707 \$I2706 \$I2708 GND nfet_03v3 L=0.28U W=0.44U AS=0.2684P
+ AD=0.2684P PS=2.1U PD=2.1U
* device instance $39 m90 *1 82.19,87.42 nfet_03v3
M$39 \$I2710 \$I2709 \$I2711 GND nfet_03v3 L=0.28U W=0.44U AS=0.2684P
+ AD=0.2684P PS=2.1U PD=2.1U
* device instance $40 m90 *1 82.19,93.98 nfet_03v3
M$40 \$I2713 \$I2712 \$I2714 GND nfet_03v3 L=0.28U W=0.44U AS=0.2684P
+ AD=0.2684P PS=2.1U PD=2.1U
* device instance $41 m90 *1 82.19,102.18 nfet_03v3
M$41 \$I2716 \$I2715 \$I2717 GND nfet_03v3 L=0.28U W=0.44U AS=0.2684P
+ AD=0.2684P PS=2.1U PD=2.1U
* device instance $42 m90 *1 82.19,113.66 nfet_03v3
M$42 \$I2719 \$I2718 \$I2720 GND nfet_03v3 L=0.28U W=0.44U AS=0.2684P
+ AD=0.2684P PS=2.1U PD=2.1U
* device instance $43 m90 *1 82.19,120.22 nfet_03v3
M$43 \$I2722 \$I2721 \$I2723 GND nfet_03v3 L=0.28U W=0.44U AS=0.2684P
+ AD=0.2684P PS=2.1U PD=2.1U
* device instance $44 m90 *1 82.19,115.3 nfet_03v3
M$44 \$I2725 \$I2724 \$I2726 GND nfet_03v3 L=0.28U W=0.44U AS=0.2684P
+ AD=0.2684P PS=2.1U PD=2.1U
* device instance $45 m90 *1 82.19,95.62 nfet_03v3
M$45 \$I2728 \$I2727 \$I2729 GND nfet_03v3 L=0.28U W=0.44U AS=0.2684P
+ AD=0.2684P PS=2.1U PD=2.1U
* device instance $46 m90 *1 82.19,108.74 nfet_03v3
M$46 \$I2731 \$I2730 \$I2732 GND nfet_03v3 L=0.28U W=0.44U AS=0.2684P
+ AD=0.2684P PS=2.1U PD=2.1U
* device instance $47 r0 *1 65.47,105.46 nfet_03v3
M$47 \$I2734 \$I2733 \$I2735 GND nfet_03v3 L=0.28U W=0.44U AS=0.2684P
+ AD=0.2684P PS=2.1U PD=2.1U
* device instance $48 r0 *1 65.47,125.14 nfet_03v3
M$48 \$I2737 \$I2736 \$I2738 GND nfet_03v3 L=0.28U W=0.44U AS=0.2684P
+ AD=0.2684P PS=2.1U PD=2.1U
* device instance $49 r0 *1 65.47,131.7 nfet_03v3
M$49 \$I2740 \$I2739 \$I2741 GND nfet_03v3 L=0.28U W=0.44U AS=0.2684P
+ AD=0.2684P PS=2.1U PD=2.1U
* device instance $50 r0 *1 65.47,130.06 nfet_03v3
M$50 \$I2743 \$I2742 \$I2744 GND nfet_03v3 L=0.28U W=0.44U AS=0.2684P
+ AD=0.2684P PS=2.1U PD=2.1U
* device instance $51 r0 *1 65.47,97.26 nfet_03v3
M$51 \$I2746 \$I2745 \$I2747 GND nfet_03v3 L=0.28U W=0.44U AS=0.2684P
+ AD=0.2684P PS=2.1U PD=2.1U
* device instance $52 r0 *1 65.47,98.9 nfet_03v3
M$52 \$I2749 \$I2748 \$I2750 GND nfet_03v3 L=0.28U W=0.44U AS=0.2684P
+ AD=0.2684P PS=2.1U PD=2.1U
* device instance $53 r0 *1 65.47,103.82 nfet_03v3
M$53 \$I2752 \$I2751 \$I2753 GND nfet_03v3 L=0.28U W=0.44U AS=0.2684P
+ AD=0.2684P PS=2.1U PD=2.1U
* device instance $54 r0 *1 65.47,102.18 nfet_03v3
M$54 \$I2755 \$I2754 \$I2756 GND nfet_03v3 L=0.28U W=0.44U AS=0.2684P
+ AD=0.2684P PS=2.1U PD=2.1U
* device instance $55 r0 *1 65.47,107.1 nfet_03v3
M$55 \$I2758 \$I2757 \$I2759 GND nfet_03v3 L=0.28U W=0.44U AS=0.2684P
+ AD=0.2684P PS=2.1U PD=2.1U
* device instance $56 r0 *1 65.47,126.78 nfet_03v3
M$56 \$I2761 \$I2760 \$I2762 GND nfet_03v3 L=0.28U W=0.44U AS=0.2684P
+ AD=0.2684P PS=2.1U PD=2.1U
* device instance $57 r0 *1 65.47,100.54 nfet_03v3
M$57 \$I2764 \$I2763 \$I2765 GND nfet_03v3 L=0.28U W=0.44U AS=0.2684P
+ AD=0.2684P PS=2.1U PD=2.1U
* device instance $58 r0 *1 65.47,133.34 nfet_03v3
M$58 \$I2767 \$I2766 \$I2768 GND nfet_03v3 L=0.28U W=0.44U AS=0.2684P
+ AD=0.2684P PS=2.1U PD=2.1U
* device instance $59 r0 *1 65.47,128.42 nfet_03v3
M$59 \$I2770 \$I2769 \$I2771 GND nfet_03v3 L=0.28U W=0.44U AS=0.2684P
+ AD=0.2684P PS=2.1U PD=2.1U
* device instance $60 r0 *1 65.47,123.5 nfet_03v3
M$60 \$I2773 \$I2772 \$I2774 GND nfet_03v3 L=0.28U W=0.44U AS=0.2684P
+ AD=0.2684P PS=2.1U PD=2.1U
* device instance $61 r0 *1 65.47,108.74 nfet_03v3
M$61 \$I2776 \$I2775 \$I2777 GND nfet_03v3 L=0.28U W=0.44U AS=0.2684P
+ AD=0.2684P PS=2.1U PD=2.1U
* device instance $62 m90 *1 77.45,123.5 nfet_03v3
M$62 \$I2779 \$I2778 \$I2780 GND nfet_03v3 L=0.28U W=0.44U AS=0.2684P
+ AD=0.2684P PS=2.1U PD=2.1U
* device instance $63 m90 *1 77.45,133.34 nfet_03v3
M$63 \$I2782 \$I2781 \$I2783 GND nfet_03v3 L=0.28U W=0.44U AS=0.2684P
+ AD=0.2684P PS=2.1U PD=2.1U
* device instance $64 m90 *1 77.45,126.78 nfet_03v3
M$64 \$I2785 \$I2784 \$I2786 GND nfet_03v3 L=0.28U W=0.44U AS=0.2684P
+ AD=0.2684P PS=2.1U PD=2.1U
* device instance $65 m90 *1 77.45,130.06 nfet_03v3
M$65 \$I2788 \$I2787 \$I2789 GND nfet_03v3 L=0.28U W=0.44U AS=0.2684P
+ AD=0.2684P PS=2.1U PD=2.1U
* device instance $66 m90 *1 77.45,131.7 nfet_03v3
M$66 \$I2791 \$I2790 \$I2792 GND nfet_03v3 L=0.28U W=0.44U AS=0.2684P
+ AD=0.2684P PS=2.1U PD=2.1U
* device instance $67 m90 *1 77.45,128.42 nfet_03v3
M$67 \$I2794 \$I2793 \$I2795 GND nfet_03v3 L=0.28U W=0.44U AS=0.2684P
+ AD=0.2684P PS=2.1U PD=2.1U
* device instance $68 m90 *1 77.45,125.14 nfet_03v3
M$68 \$I2797 \$I2796 \$I2798 GND nfet_03v3 L=0.28U W=0.44U AS=0.2684P
+ AD=0.2684P PS=2.1U PD=2.1U
* device instance $69 m90 *1 77.45,102.18 nfet_03v3
M$69 \$I2800 \$I2799 \$I2801 GND nfet_03v3 L=0.28U W=0.44U AS=0.2684P
+ AD=0.2684P PS=2.1U PD=2.1U
* device instance $70 m90 *1 77.45,98.9 nfet_03v3
M$70 \$I2803 \$I2802 \$I2804 GND nfet_03v3 L=0.28U W=0.44U AS=0.2684P
+ AD=0.2684P PS=2.1U PD=2.1U
* device instance $71 m90 *1 77.45,97.26 nfet_03v3
M$71 \$I2806 \$I2805 \$I2807 GND nfet_03v3 L=0.28U W=0.44U AS=0.2684P
+ AD=0.2684P PS=2.1U PD=2.1U
* device instance $72 m90 *1 77.45,100.54 nfet_03v3
M$72 \$I2809 \$I2808 \$I2810 GND nfet_03v3 L=0.28U W=0.44U AS=0.2684P
+ AD=0.2684P PS=2.1U PD=2.1U
* device instance $73 m90 *1 77.45,103.82 nfet_03v3
M$73 \$I2812 \$I2811 \$I2813 GND nfet_03v3 L=0.28U W=0.44U AS=0.2684P
+ AD=0.2684P PS=2.1U PD=2.1U
* device instance $74 m90 *1 77.45,105.46 nfet_03v3
M$74 \$I2815 \$I2814 \$I2816 GND nfet_03v3 L=0.28U W=0.44U AS=0.2684P
+ AD=0.2684P PS=2.1U PD=2.1U
* device instance $75 m90 *1 77.45,107.1 nfet_03v3
M$75 \$I2818 \$I2817 \$I2819 GND nfet_03v3 L=0.28U W=0.44U AS=0.2684P
+ AD=0.2684P PS=2.1U PD=2.1U
* device instance $76 m90 *1 77.45,108.74 nfet_03v3
M$76 \$I2821 \$I2820 \$I2822 GND nfet_03v3 L=0.28U W=0.44U AS=0.2684P
+ AD=0.2684P PS=2.1U PD=2.1U
* device instance $77 r0 *1 60.73,84.14 nfet_03v3
M$77 \$I2824 \$I2823 \$I2825 GND nfet_03v3 L=0.28U W=0.44U AS=0.2684P
+ AD=0.2684P PS=2.1U PD=2.1U
* device instance $78 m90 *1 86.93,84.14 nfet_03v3
M$78 \$I2827 \$I2826 \$I2828 GND nfet_03v3 L=0.28U W=0.44U AS=0.2684P
+ AD=0.2684P PS=2.1U PD=2.1U
* device instance $79 m90 *1 63.23,128.42 nfet_03v3
M$79 \$I2830 \$I2829 \$I2831 GND nfet_03v3 L=0.28U W=0.44U AS=0.2684P
+ AD=0.2684P PS=2.1U PD=2.1U
* device instance $80 m90 *1 63.23,131.7 nfet_03v3
M$80 \$I2833 \$I2832 \$I2834 GND nfet_03v3 L=0.28U W=0.44U AS=0.2684P
+ AD=0.2684P PS=2.1U PD=2.1U
* device instance $81 m90 *1 63.23,120.22 nfet_03v3
M$81 \$I2836 \$I2835 \$I2837 GND nfet_03v3 L=0.28U W=0.44U AS=0.2684P
+ AD=0.2684P PS=2.1U PD=2.1U
* device instance $82 m90 *1 63.23,123.5 nfet_03v3
M$82 \$I2839 \$I2838 \$I2840 GND nfet_03v3 L=0.28U W=0.44U AS=0.2684P
+ AD=0.2684P PS=2.1U PD=2.1U
* device instance $83 m90 *1 63.23,125.14 nfet_03v3
M$83 \$I2842 \$I2841 \$I2843 GND nfet_03v3 L=0.28U W=0.44U AS=0.2684P
+ AD=0.2684P PS=2.1U PD=2.1U
* device instance $84 m90 *1 63.23,126.78 nfet_03v3
M$84 \$I2845 \$I2844 \$I2846 GND nfet_03v3 L=0.28U W=0.44U AS=0.2684P
+ AD=0.2684P PS=2.1U PD=2.1U
* device instance $85 m90 *1 63.23,133.34 nfet_03v3
M$85 \$I2848 \$I2847 \$I2849 GND nfet_03v3 L=0.28U W=0.44U AS=0.2684P
+ AD=0.2684P PS=2.1U PD=2.1U
* device instance $86 m90 *1 63.23,115.3 nfet_03v3
M$86 \$I2851 \$I2850 \$I2852 GND nfet_03v3 L=0.28U W=0.44U AS=0.2684P
+ AD=0.2684P PS=2.1U PD=2.1U
* device instance $87 m90 *1 63.23,121.86 nfet_03v3
M$87 \$I2854 \$I2853 \$I2855 GND nfet_03v3 L=0.28U W=0.44U AS=0.2684P
+ AD=0.2684P PS=2.1U PD=2.1U
* device instance $88 m90 *1 63.23,113.66 nfet_03v3
M$88 \$I2857 \$I2856 \$I2858 GND nfet_03v3 L=0.28U W=0.44U AS=0.2684P
+ AD=0.2684P PS=2.1U PD=2.1U
* device instance $89 m90 *1 63.23,118.58 nfet_03v3
M$89 \$I2860 \$I2859 \$I2861 GND nfet_03v3 L=0.28U W=0.44U AS=0.2684P
+ AD=0.2684P PS=2.1U PD=2.1U
* device instance $90 m90 *1 63.23,130.06 nfet_03v3
M$90 \$I2863 \$I2862 \$I2864 GND nfet_03v3 L=0.28U W=0.44U AS=0.2684P
+ AD=0.2684P PS=2.1U PD=2.1U
* device instance $91 m90 *1 63.23,116.94 nfet_03v3
M$91 \$I2866 \$I2865 \$I2867 GND nfet_03v3 L=0.28U W=0.44U AS=0.2684P
+ AD=0.2684P PS=2.1U PD=2.1U
* device instance $92 m90 *1 63.23,112.02 nfet_03v3
M$92 \$I2869 \$I2868 \$I2870 GND nfet_03v3 L=0.28U W=0.44U AS=0.2684P
+ AD=0.2684P PS=2.1U PD=2.1U
* device instance $93 m90 *1 63.23,110.38 nfet_03v3
M$93 \$I2872 \$I2871 \$I2873 GND nfet_03v3 L=0.28U W=0.44U AS=0.2684P
+ AD=0.2684P PS=2.1U PD=2.1U
* device instance $94 r0 *1 74.95,131.7 nfet_03v3
M$94 \$I2875 \$I2874 \$I2876 GND nfet_03v3 L=0.28U W=0.44U AS=0.2684P
+ AD=0.2684P PS=2.1U PD=2.1U
* device instance $95 r0 *1 74.95,126.78 nfet_03v3
M$95 \$I2878 \$I2877 \$I2879 GND nfet_03v3 L=0.28U W=0.44U AS=0.2684P
+ AD=0.2684P PS=2.1U PD=2.1U
* device instance $96 r0 *1 74.95,116.94 nfet_03v3
M$96 \$I2881 \$I2880 \$I2882 GND nfet_03v3 L=0.28U W=0.44U AS=0.2684P
+ AD=0.2684P PS=2.1U PD=2.1U
* device instance $97 r0 *1 74.95,112.02 nfet_03v3
M$97 \$I2884 \$I2883 \$I2885 GND nfet_03v3 L=0.28U W=0.44U AS=0.2684P
+ AD=0.2684P PS=2.1U PD=2.1U
* device instance $98 r0 *1 74.95,110.38 nfet_03v3
M$98 \$I2887 \$I2886 \$I2888 GND nfet_03v3 L=0.28U W=0.44U AS=0.2684P
+ AD=0.2684P PS=2.1U PD=2.1U
* device instance $99 r0 *1 74.95,118.58 nfet_03v3
M$99 \$I2890 \$I2889 \$I2891 GND nfet_03v3 L=0.28U W=0.44U AS=0.2684P
+ AD=0.2684P PS=2.1U PD=2.1U
* device instance $100 r0 *1 74.95,115.3 nfet_03v3
M$100 \$I2893 \$I2892 \$I2894 GND nfet_03v3 L=0.28U W=0.44U AS=0.2684P
+ AD=0.2684P PS=2.1U PD=2.1U
* device instance $101 r0 *1 74.95,113.66 nfet_03v3
M$101 \$I2896 \$I2895 \$I2897 GND nfet_03v3 L=0.28U W=0.44U AS=0.2684P
+ AD=0.2684P PS=2.1U PD=2.1U
* device instance $102 r0 *1 74.95,125.14 nfet_03v3
M$102 \$I2899 \$I2898 \$I2900 GND nfet_03v3 L=0.28U W=0.44U AS=0.2684P
+ AD=0.2684P PS=2.1U PD=2.1U
* device instance $103 r0 *1 74.95,123.5 nfet_03v3
M$103 \$I2902 \$I2901 \$I2903 GND nfet_03v3 L=0.28U W=0.44U AS=0.2684P
+ AD=0.2684P PS=2.1U PD=2.1U
* device instance $104 r0 *1 74.95,121.86 nfet_03v3
M$104 \$I2905 \$I2904 \$I2906 GND nfet_03v3 L=0.28U W=0.44U AS=0.2684P
+ AD=0.2684P PS=2.1U PD=2.1U
* device instance $105 r0 *1 74.95,120.22 nfet_03v3
M$105 \$I2908 \$I2907 \$I2909 GND nfet_03v3 L=0.28U W=0.44U AS=0.2684P
+ AD=0.2684P PS=2.1U PD=2.1U
* device instance $106 r0 *1 74.95,130.06 nfet_03v3
M$106 \$I2911 \$I2910 \$I2912 GND nfet_03v3 L=0.28U W=0.44U AS=0.2684P
+ AD=0.2684P PS=2.1U PD=2.1U
* device instance $107 r0 *1 74.95,128.42 nfet_03v3
M$107 \$I2914 \$I2913 \$I2915 GND nfet_03v3 L=0.28U W=0.44U AS=0.2684P
+ AD=0.2684P PS=2.1U PD=2.1U
* device instance $108 r0 *1 74.95,133.34 nfet_03v3
M$108 \$I2917 \$I2916 \$I2918 GND nfet_03v3 L=0.28U W=0.44U AS=0.2684P
+ AD=0.2684P PS=2.1U PD=2.1U
* device instance $109 r0 *1 60.73,87.42 nfet_03v3
M$109 \$I2920 \$I2919 \$I2921 GND nfet_03v3 L=0.28U W=0.44U AS=0.2684P
+ AD=0.2684P PS=2.1U PD=2.1U
* device instance $110 r0 *1 60.73,85.78 nfet_03v3
M$110 \$I2923 \$I2922 \$I2924 GND nfet_03v3 L=0.28U W=0.44U AS=0.2684P
+ AD=0.2684P PS=2.1U PD=2.1U
* device instance $111 m90 *1 72.71,85.78 nfet_03v3
M$111 \$I2926 \$I2925 \$I2927 GND nfet_03v3 L=0.28U W=0.44U AS=0.2684P
+ AD=0.2684P PS=2.1U PD=2.1U
* device instance $112 m90 *1 86.93,87.42 nfet_03v3
M$112 \$I2929 \$I2928 \$I2930 GND nfet_03v3 L=0.28U W=0.44U AS=0.2684P
+ AD=0.2684P PS=2.1U PD=2.1U
* device instance $113 m90 *1 86.93,85.78 nfet_03v3
M$113 \$I2932 \$I2931 \$I2933 GND nfet_03v3 L=0.28U W=0.44U AS=0.2684P
+ AD=0.2684P PS=2.1U PD=2.1U
* device instance $114 r0 *1 84.43,85.78 nfet_03v3
M$114 \$I2935 \$I2934 \$I2936 GND nfet_03v3 L=0.28U W=0.44U AS=0.2684P
+ AD=0.2684P PS=2.1U PD=2.1U
* device instance $115 m90 *1 67.97,133.34 nfet_03v3
M$115 \$I2938 \$I2937 \$I2939 GND nfet_03v3 L=0.28U W=0.44U AS=0.2684P
+ AD=0.2684P PS=2.1U PD=2.1U
* device instance $116 m90 *1 67.97,121.86 nfet_03v3
M$116 \$I2941 \$I2940 \$I2942 GND nfet_03v3 L=0.28U W=0.44U AS=0.2684P
+ AD=0.2684P PS=2.1U PD=2.1U
* device instance $117 m90 *1 67.97,120.22 nfet_03v3
M$117 \$I2944 \$I2943 \$I2945 GND nfet_03v3 L=0.28U W=0.44U AS=0.2684P
+ AD=0.2684P PS=2.1U PD=2.1U
* device instance $118 m90 *1 67.97,116.94 nfet_03v3
M$118 \$I2947 \$I2946 \$I2948 GND nfet_03v3 L=0.28U W=0.44U AS=0.2684P
+ AD=0.2684P PS=2.1U PD=2.1U
* device instance $119 m90 *1 67.97,130.06 nfet_03v3
M$119 \$I2950 \$I2949 \$I2951 GND nfet_03v3 L=0.28U W=0.44U AS=0.2684P
+ AD=0.2684P PS=2.1U PD=2.1U
* device instance $120 m90 *1 67.97,92.34 nfet_03v3
M$120 \$I2953 \$I2952 \$I2954 GND nfet_03v3 L=0.28U W=0.44U AS=0.2684P
+ AD=0.2684P PS=2.1U PD=2.1U
* device instance $121 m90 *1 67.97,108.74 nfet_03v3
M$121 \$I2956 \$I2955 \$I2957 GND nfet_03v3 L=0.28U W=0.44U AS=0.2684P
+ AD=0.2684P PS=2.1U PD=2.1U
* device instance $122 m90 *1 67.97,131.7 nfet_03v3
M$122 \$I2959 \$I2958 \$I2960 GND nfet_03v3 L=0.28U W=0.44U AS=0.2684P
+ AD=0.2684P PS=2.1U PD=2.1U
* device instance $123 m90 *1 67.97,90.7 nfet_03v3
M$123 \$I2962 \$I2961 \$I2963 GND nfet_03v3 L=0.28U W=0.44U AS=0.2684P
+ AD=0.2684P PS=2.1U PD=2.1U
* device instance $124 m90 *1 67.97,107.1 nfet_03v3
M$124 \$I2965 \$I2964 \$I2966 GND nfet_03v3 L=0.28U W=0.44U AS=0.2684P
+ AD=0.2684P PS=2.1U PD=2.1U
* device instance $125 m90 *1 67.97,105.46 nfet_03v3
M$125 \$I2968 \$I2967 \$I2969 GND nfet_03v3 L=0.28U W=0.44U AS=0.2684P
+ AD=0.2684P PS=2.1U PD=2.1U
* device instance $126 m90 *1 67.97,93.98 nfet_03v3
M$126 \$I2971 \$I2970 \$I2972 GND nfet_03v3 L=0.28U W=0.44U AS=0.2684P
+ AD=0.2684P PS=2.1U PD=2.1U
* device instance $127 m90 *1 67.97,103.82 nfet_03v3
M$127 \$I2974 \$I2973 \$I2975 GND nfet_03v3 L=0.28U W=0.44U AS=0.2684P
+ AD=0.2684P PS=2.1U PD=2.1U
* device instance $128 m90 *1 67.97,95.62 nfet_03v3
M$128 \$I2977 \$I2976 \$I2978 GND nfet_03v3 L=0.28U W=0.44U AS=0.2684P
+ AD=0.2684P PS=2.1U PD=2.1U
* device instance $129 m90 *1 67.97,118.58 nfet_03v3
M$129 \$I2980 \$I2979 \$I2981 GND nfet_03v3 L=0.28U W=0.44U AS=0.2684P
+ AD=0.2684P PS=2.1U PD=2.1U
* device instance $130 r0 *1 79.69,107.1 nfet_03v3
M$130 \$I2983 \$I2982 \$I2984 GND nfet_03v3 L=0.28U W=0.44U AS=0.2684P
+ AD=0.2684P PS=2.1U PD=2.1U
* device instance $131 r0 *1 79.69,103.82 nfet_03v3
M$131 \$I2986 \$I2985 \$I2987 GND nfet_03v3 L=0.28U W=0.44U AS=0.2684P
+ AD=0.2684P PS=2.1U PD=2.1U
* device instance $132 r0 *1 79.69,105.46 nfet_03v3
M$132 \$I2989 \$I2988 \$I2990 GND nfet_03v3 L=0.28U W=0.44U AS=0.2684P
+ AD=0.2684P PS=2.1U PD=2.1U
* device instance $133 r0 *1 79.69,93.98 nfet_03v3
M$133 \$I2992 \$I2991 \$I2993 GND nfet_03v3 L=0.28U W=0.44U AS=0.2684P
+ AD=0.2684P PS=2.1U PD=2.1U
* device instance $134 r0 *1 79.69,95.62 nfet_03v3
M$134 \$I2995 \$I2994 \$I2996 GND nfet_03v3 L=0.28U W=0.44U AS=0.2684P
+ AD=0.2684P PS=2.1U PD=2.1U
* device instance $135 r0 *1 79.69,92.34 nfet_03v3
M$135 \$I2998 \$I2997 \$I2999 GND nfet_03v3 L=0.28U W=0.44U AS=0.2684P
+ AD=0.2684P PS=2.1U PD=2.1U
* device instance $136 r0 *1 79.69,90.7 nfet_03v3
M$136 \$I3001 \$I3000 \$I3002 GND nfet_03v3 L=0.28U W=0.44U AS=0.2684P
+ AD=0.2684P PS=2.1U PD=2.1U
* device instance $137 r0 *1 79.69,133.34 nfet_03v3
M$137 \$I3004 \$I3003 \$I3005 GND nfet_03v3 L=0.28U W=0.44U AS=0.2684P
+ AD=0.2684P PS=2.1U PD=2.1U
* device instance $138 r0 *1 79.69,108.74 nfet_03v3
M$138 \$I3007 \$I3006 \$I3008 GND nfet_03v3 L=0.28U W=0.44U AS=0.2684P
+ AD=0.2684P PS=2.1U PD=2.1U
* device instance $139 r0 *1 79.69,116.94 nfet_03v3
M$139 \$I3010 \$I3009 \$I3011 GND nfet_03v3 L=0.28U W=0.44U AS=0.2684P
+ AD=0.2684P PS=2.1U PD=2.1U
* device instance $140 r0 *1 79.69,118.58 nfet_03v3
M$140 \$I3013 \$I3012 \$I3014 GND nfet_03v3 L=0.28U W=0.44U AS=0.2684P
+ AD=0.2684P PS=2.1U PD=2.1U
* device instance $141 r0 *1 79.69,120.22 nfet_03v3
M$141 \$I3016 \$I3015 \$I3017 GND nfet_03v3 L=0.28U W=0.44U AS=0.2684P
+ AD=0.2684P PS=2.1U PD=2.1U
* device instance $142 r0 *1 79.69,131.7 nfet_03v3
M$142 \$I3019 \$I3018 \$I3020 GND nfet_03v3 L=0.28U W=0.44U AS=0.2684P
+ AD=0.2684P PS=2.1U PD=2.1U
* device instance $143 r0 *1 79.69,130.06 nfet_03v3
M$143 \$I3022 \$I3021 \$I3023 GND nfet_03v3 L=0.28U W=0.44U AS=0.2684P
+ AD=0.2684P PS=2.1U PD=2.1U
* device instance $144 r0 *1 79.69,121.86 nfet_03v3
M$144 \$I3025 \$I3024 \$I3026 GND nfet_03v3 L=0.28U W=0.44U AS=0.2684P
+ AD=0.2684P PS=2.1U PD=2.1U
* device instance $145 m90 *1 72.71,89.06 nfet_03v3
M$145 \$I3028 \$I3027 \$I3029 GND nfet_03v3 L=0.28U W=0.44U AS=0.2684P
+ AD=0.2684P PS=2.1U PD=2.1U
* device instance $146 r0 *1 60.73,89.06 nfet_03v3
M$146 \$I3031 \$I3030 \$I3032 GND nfet_03v3 L=0.28U W=0.44U AS=0.2684P
+ AD=0.2684P PS=2.1U PD=2.1U
* device instance $147 m90 *1 86.93,89.06 nfet_03v3
M$147 \$I3034 \$I3033 \$I3035 GND nfet_03v3 L=0.28U W=0.44U AS=0.2684P
+ AD=0.2684P PS=2.1U PD=2.1U
* device instance $148 r0 *1 84.43,89.06 nfet_03v3
M$148 \$I3037 \$I3036 \$I3038 GND nfet_03v3 L=0.28U W=0.44U AS=0.2684P
+ AD=0.2684P PS=2.1U PD=2.1U
* device instance $149 r0 *1 60.73,90.7 nfet_03v3
M$149 \$I3040 \$I3039 \$I3041 GND nfet_03v3 L=0.28U W=0.44U AS=0.2684P
+ AD=0.2684P PS=2.1U PD=2.1U
* device instance $150 r0 *1 84.43,95.62 nfet_03v3
M$150 \$I3043 \$I3042 \$I3044 GND nfet_03v3 L=0.28U W=0.44U AS=0.2684P
+ AD=0.2684P PS=2.1U PD=2.1U
* device instance $151 r0 *1 84.43,92.34 nfet_03v3
M$151 \$I3046 \$I3045 \$I3047 GND nfet_03v3 L=0.28U W=0.44U AS=0.2684P
+ AD=0.2684P PS=2.1U PD=2.1U
* device instance $152 r0 *1 84.43,102.18 nfet_03v3
M$152 \$I3049 \$I3048 \$I3050 GND nfet_03v3 L=0.28U W=0.44U AS=0.2684P
+ AD=0.2684P PS=2.1U PD=2.1U
* device instance $153 r0 *1 84.43,105.46 nfet_03v3
M$153 \$I3052 \$I3051 \$I3053 GND nfet_03v3 L=0.28U W=0.44U AS=0.2684P
+ AD=0.2684P PS=2.1U PD=2.1U
* device instance $154 r0 *1 84.43,112.02 nfet_03v3
M$154 \$I3055 \$I3054 \$I3056 GND nfet_03v3 L=0.28U W=0.44U AS=0.2684P
+ AD=0.2684P PS=2.1U PD=2.1U
* device instance $155 r0 *1 84.43,118.58 nfet_03v3
M$155 \$I3058 \$I3057 \$I3059 GND nfet_03v3 L=0.28U W=0.44U AS=0.2684P
+ AD=0.2684P PS=2.1U PD=2.1U
* device instance $156 r0 *1 84.43,128.42 nfet_03v3
M$156 \$I3061 \$I3060 \$I3062 GND nfet_03v3 L=0.28U W=0.44U AS=0.2684P
+ AD=0.2684P PS=2.1U PD=2.1U
* device instance $157 r0 *1 84.43,108.74 nfet_03v3
M$157 \$I3064 \$I3063 \$I3065 GND nfet_03v3 L=0.28U W=0.44U AS=0.2684P
+ AD=0.2684P PS=2.1U PD=2.1U
* device instance $158 r0 *1 84.43,115.3 nfet_03v3
M$158 \$I3067 \$I3066 \$I3068 GND nfet_03v3 L=0.28U W=0.44U AS=0.2684P
+ AD=0.2684P PS=2.1U PD=2.1U
* device instance $159 r0 *1 84.43,98.9 nfet_03v3
M$159 \$I3070 \$I3069 \$I3071 GND nfet_03v3 L=0.28U W=0.44U AS=0.2684P
+ AD=0.2684P PS=2.1U PD=2.1U
* device instance $160 r0 *1 84.43,131.7 nfet_03v3
M$160 \$I3073 \$I3072 \$I3074 GND nfet_03v3 L=0.28U W=0.44U AS=0.2684P
+ AD=0.2684P PS=2.1U PD=2.1U
* device instance $161 r0 *1 84.43,121.86 nfet_03v3
M$161 \$I3076 \$I3075 \$I3077 GND nfet_03v3 L=0.28U W=0.44U AS=0.2684P
+ AD=0.2684P PS=2.1U PD=2.1U
* device instance $162 r0 *1 84.43,125.14 nfet_03v3
M$162 \$I3079 \$I3078 \$I3080 GND nfet_03v3 L=0.28U W=0.44U AS=0.2684P
+ AD=0.2684P PS=2.1U PD=2.1U
* device instance $163 m90 *1 72.71,95.62 nfet_03v3
M$163 \$I3082 \$I3081 \$I3083 GND nfet_03v3 L=0.28U W=0.44U AS=0.2684P
+ AD=0.2684P PS=2.1U PD=2.1U
* device instance $164 m90 *1 72.71,98.9 nfet_03v3
M$164 \$I3085 \$I3084 \$I3086 GND nfet_03v3 L=0.28U W=0.44U AS=0.2684P
+ AD=0.2684P PS=2.1U PD=2.1U
* device instance $165 m90 *1 72.71,92.34 nfet_03v3
M$165 \$I3088 \$I3087 \$I3089 GND nfet_03v3 L=0.28U W=0.44U AS=0.2684P
+ AD=0.2684P PS=2.1U PD=2.1U
* device instance $166 m90 *1 72.71,112.02 nfet_03v3
M$166 \$I3091 \$I3090 \$I3092 GND nfet_03v3 L=0.28U W=0.44U AS=0.2684P
+ AD=0.2684P PS=2.1U PD=2.1U
* device instance $167 m90 *1 72.71,105.46 nfet_03v3
M$167 \$I3094 \$I3093 \$I3095 GND nfet_03v3 L=0.28U W=0.44U AS=0.2684P
+ AD=0.2684P PS=2.1U PD=2.1U
* device instance $168 m90 *1 72.71,108.74 nfet_03v3
M$168 \$I3097 \$I3096 \$I3098 GND nfet_03v3 L=0.28U W=0.44U AS=0.2684P
+ AD=0.2684P PS=2.1U PD=2.1U
* device instance $169 m90 *1 72.71,102.18 nfet_03v3
M$169 \$I3100 \$I3099 \$I3101 GND nfet_03v3 L=0.28U W=0.44U AS=0.2684P
+ AD=0.2684P PS=2.1U PD=2.1U
* device instance $170 m90 *1 72.71,118.58 nfet_03v3
M$170 \$I3103 \$I3102 \$I3104 GND nfet_03v3 L=0.28U W=0.44U AS=0.2684P
+ AD=0.2684P PS=2.1U PD=2.1U
* device instance $171 m90 *1 72.71,115.3 nfet_03v3
M$171 \$I3106 \$I3105 \$I3107 GND nfet_03v3 L=0.28U W=0.44U AS=0.2684P
+ AD=0.2684P PS=2.1U PD=2.1U
* device instance $172 m90 *1 72.71,125.14 nfet_03v3
M$172 \$I3109 \$I3108 \$I3110 GND nfet_03v3 L=0.28U W=0.44U AS=0.2684P
+ AD=0.2684P PS=2.1U PD=2.1U
* device instance $173 m90 *1 72.71,131.7 nfet_03v3
M$173 \$I3112 \$I3111 \$I3113 GND nfet_03v3 L=0.28U W=0.44U AS=0.2684P
+ AD=0.2684P PS=2.1U PD=2.1U
* device instance $174 m90 *1 72.71,121.86 nfet_03v3
M$174 \$I3115 \$I3114 \$I3116 GND nfet_03v3 L=0.28U W=0.44U AS=0.2684P
+ AD=0.2684P PS=2.1U PD=2.1U
* device instance $175 m90 *1 72.71,128.42 nfet_03v3
M$175 \$I3118 \$I3117 \$I3119 GND nfet_03v3 L=0.28U W=0.44U AS=0.2684P
+ AD=0.2684P PS=2.1U PD=2.1U
* device instance $176 m90 *1 86.93,90.7 nfet_03v3
M$176 \$I3121 \$I3120 \$I3122 GND nfet_03v3 L=0.28U W=0.44U AS=0.2684P
+ AD=0.2684P PS=2.1U PD=2.1U
* device instance $177 r0 *1 60.73,93.98 nfet_03v3
M$177 \$I3124 \$I3123 \$I3125 GND nfet_03v3 L=0.28U W=0.44U AS=0.2684P
+ AD=0.2684P PS=2.1U PD=2.1U
* device instance $178 r0 *1 60.73,92.34 nfet_03v3
M$178 \$I3127 \$I3126 \$I3128 GND nfet_03v3 L=0.28U W=0.44U AS=0.2684P
+ AD=0.2684P PS=2.1U PD=2.1U
* device instance $179 m90 *1 86.93,92.34 nfet_03v3
M$179 \$I3130 \$I3129 \$I3131 GND nfet_03v3 L=0.28U W=0.44U AS=0.2684P
+ AD=0.2684P PS=2.1U PD=2.1U
* device instance $180 m90 *1 86.93,93.98 nfet_03v3
M$180 \$I3133 \$I3132 \$I3134 GND nfet_03v3 L=0.28U W=0.44U AS=0.2684P
+ AD=0.2684P PS=2.1U PD=2.1U
* device instance $181 r0 *1 60.73,97.26 nfet_03v3
M$181 \$I3136 \$I3135 \$I3137 GND nfet_03v3 L=0.28U W=0.44U AS=0.2684P
+ AD=0.2684P PS=2.1U PD=2.1U
* device instance $182 r0 *1 60.73,95.62 nfet_03v3
M$182 \$I3139 \$I3138 \$I3140 GND nfet_03v3 L=0.28U W=0.44U AS=0.2684P
+ AD=0.2684P PS=2.1U PD=2.1U
* device instance $183 m90 *1 86.93,95.62 nfet_03v3
M$183 \$I3142 \$I3141 \$I3143 GND nfet_03v3 L=0.28U W=0.44U AS=0.2684P
+ AD=0.2684P PS=2.1U PD=2.1U
* device instance $184 m90 *1 86.93,97.26 nfet_03v3
M$184 \$I3145 \$I3144 \$I3146 GND nfet_03v3 L=0.28U W=0.44U AS=0.2684P
+ AD=0.2684P PS=2.1U PD=2.1U
* device instance $185 r0 *1 60.73,98.9 nfet_03v3
M$185 \$I3148 \$I3147 \$I3149 GND nfet_03v3 L=0.28U W=0.44U AS=0.2684P
+ AD=0.2684P PS=2.1U PD=2.1U
* device instance $186 m90 *1 86.93,98.9 nfet_03v3
M$186 \$I3151 \$I3150 \$I3152 GND nfet_03v3 L=0.28U W=0.44U AS=0.2684P
+ AD=0.2684P PS=2.1U PD=2.1U
* device instance $187 m90 *1 86.93,100.54 nfet_03v3
M$187 \$I3154 \$I3153 \$I3155 GND nfet_03v3 L=0.28U W=0.44U AS=0.2684P
+ AD=0.2684P PS=2.1U PD=2.1U
* device instance $188 r0 *1 60.73,100.54 nfet_03v3
M$188 \$I3157 \$I3156 \$I3158 GND nfet_03v3 L=0.28U W=0.44U AS=0.2684P
+ AD=0.2684P PS=2.1U PD=2.1U
* device instance $189 r0 *1 60.73,102.18 nfet_03v3
M$189 \$I3160 \$I3159 \$I3161 GND nfet_03v3 L=0.28U W=0.44U AS=0.2684P
+ AD=0.2684P PS=2.1U PD=2.1U
* device instance $190 m90 *1 86.93,103.82 nfet_03v3
M$190 \$I3163 \$I3162 \$I3164 GND nfet_03v3 L=0.28U W=0.44U AS=0.2684P
+ AD=0.2684P PS=2.1U PD=2.1U
* device instance $191 m90 *1 86.93,102.18 nfet_03v3
M$191 \$I3166 \$I3165 \$I3167 GND nfet_03v3 L=0.28U W=0.44U AS=0.2684P
+ AD=0.2684P PS=2.1U PD=2.1U
* device instance $192 r0 *1 60.73,103.82 nfet_03v3
M$192 \$I3169 \$I3168 \$I3170 GND nfet_03v3 L=0.28U W=0.44U AS=0.2684P
+ AD=0.2684P PS=2.1U PD=2.1U
* device instance $193 r0 *1 60.73,105.46 nfet_03v3
M$193 \$I3172 \$I3171 \$I3173 GND nfet_03v3 L=0.28U W=0.44U AS=0.2684P
+ AD=0.2684P PS=2.1U PD=2.1U